

        *** GPGPU-Sim Simulator Version 3.2.2  [build 0] ***


GPGPU-Sim PTX: simulation mode 0 (can change with PTX_SIM_MODE_FUNC environment variable:
               1=functional simulation only, 0=detailed performance simulator)
GPGPU-Sim: Configuration options:

-network_mode                           1 # Interconnection network mode
-inter_config_file   config_fermi_islip.icnt # Interconnection network config file
-gpgpu_ptx_use_cuobjdump                    1 # Use cuobjdump to extract ptx and sass from binaries
-gpgpu_experimental_lib_support                    0 # Try to extract code from cuda libraries [Broken because of unknown cudaGetExportTable]
-gpgpu_ptx_convert_to_ptxplus                    0 # Convert SASS (native ISA) to ptxplus and run ptxplus
-gpgpu_ptx_force_max_capability                   20 # Force maximum compute capability
-gpgpu_ptx_inst_debug_to_file                    0 # Dump executed instructions' debug information to file
-gpgpu_ptx_inst_debug_file       inst_debug.txt # Executed instructions' debug output file
-gpgpu_ptx_inst_debug_thread_uid                    1 # Thread UID for executed instructions' debug output
-gpgpu_simd_model                       1 # 1 = post-dominator
-gpgpu_shader_core_pipeline              1536:32 # shader core pipeline config, i.e., {<nthread>:<warpsize>}
-gpgpu_tex_cache:l1  4:128:24,L:R:m:N:L,F:128:4,128:2 # per-shader L1 texture cache  (READ-ONLY) config  {<nsets>:<bsize>:<assoc>,<rep>:<wr>:<alloc>:<wr_alloc>,<mshr>:<N>:<merge>,<mq>:<rf>}
-gpgpu_const_cache:l1 64:64:2,L:R:f:N:L,A:2:32,4 # per-shader L1 constant memory cache  (READ-ONLY) config  {<nsets>:<bsize>:<assoc>,<rep>:<wr>:<alloc>:<wr_alloc>,<mshr>:<N>:<merge>,<mq>} 
-gpgpu_cache:il1     4:128:4,L:R:f:N:L,A:2:32,4 # shader L1 instruction cache config  {<nsets>:<bsize>:<assoc>,<rep>:<wr>:<alloc>:<wr_alloc>,<mshr>:<N>:<merge>,<mq>} 
-gpgpu_cache:dl1     32:128:4,L:L:m:N:H,A:32:8,8 # per-shader L1 data cache config  {<nsets>:<bsize>:<assoc>,<rep>:<wr>:<alloc>:<wr_alloc>,<mshr>:<N>:<merge>,<mq> | none}
-gpgpu_cache:dl1PrefL1                 none # per-shader L1 data cache config  {<nsets>:<bsize>:<assoc>,<rep>:<wr>:<alloc>:<wr_alloc>,<mshr>:<N>:<merge>,<mq> | none}
-gpgpu_cache:dl1PreShared                 none # per-shader L1 data cache config  {<nsets>:<bsize>:<assoc>,<rep>:<wr>:<alloc>:<wr_alloc>,<mshr>:<N>:<merge>,<mq> | none}
-gmem_skip_L1D                          0 # global memory access skip L1D cache (implements -Xptxas -dlcm=cg, default=no skip)
-gpgpu_perfect_mem                      0 # enable perfect memory mode (no cache miss)
-n_regfile_gating_group                    4 # group of lanes that should be read/written together)
-gpgpu_clock_gated_reg_file                    0 # enable clock gated reg file for power calculations
-gpgpu_clock_gated_lanes                    0 # enable clock gated lanes for power calculations
-gpgpu_shader_registers                32768 # Number of registers per shader core. Limits number of concurrent CTAs. (default 8192)
-gpgpu_shader_cta                       8 # Maximum number of concurrent CTAs in shader (default 8)
-gpgpu_num_cta_barriers                   16 # Maximum number of named barriers per CTA (default 16)
-gpgpu_n_clusters                      15 # number of processing clusters
-gpgpu_n_cores_per_cluster                    1 # number of simd cores per cluster
-gpgpu_n_cluster_ejection_buffer_size                    8 # number of packets in ejection buffer
-gpgpu_n_ldst_response_buffer_size                    2 # number of response packets in ld/st unit ejection buffer
-gpgpu_shmem_size                   16384 # Size of shared memory per shader core (default 16kB)
-gpgpu_shmem_size                   49152 # Size of shared memory per shader core (default 16kB)
-gpgpu_shmem_size_PrefL1                16384 # Size of shared memory per shader core (default 16kB)
-gpgpu_shmem_size_PrefShared                16384 # Size of shared memory per shader core (default 16kB)
-gpgpu_shmem_num_banks                   32 # Number of banks in the shared memory in each shader core (default 16)
-gpgpu_shmem_limited_broadcast                    0 # Limit shared memory to do one broadcast per cycle (default on)
-gpgpu_shmem_warp_parts                    1 # Number of portions a warp is divided into for shared memory bank conflict check 
-gpgpu_warpdistro_shader                   -1 # Specify which shader core to collect the warp size distribution from
-gpgpu_warp_issue_shader                    0 # Specify which shader core to collect the warp issue distribution from
-gpgpu_local_mem_map                    1 # Mapping from local memory space address to simulated GPU physical address space (default = enabled)
-gpgpu_num_reg_banks                   16 # Number of register banks (default = 8)
-gpgpu_reg_bank_use_warp_id                    0 # Use warp ID in mapping registers to banks (default = off)
-gpgpu_operand_collector_num_units_sp                    6 # number of collector units (default = 4)
-gpgpu_operand_collector_num_units_sfu                    8 # number of collector units (default = 4)
-gpgpu_operand_collector_num_units_mem                    2 # number of collector units (default = 2)
-gpgpu_operand_collector_num_units_gen                    0 # number of collector units (default = 0)
-gpgpu_operand_collector_num_in_ports_sp                    2 # number of collector unit in ports (default = 1)
-gpgpu_operand_collector_num_in_ports_sfu                    1 # number of collector unit in ports (default = 1)
-gpgpu_operand_collector_num_in_ports_mem                    1 # number of collector unit in ports (default = 1)
-gpgpu_operand_collector_num_in_ports_gen                    0 # number of collector unit in ports (default = 0)
-gpgpu_operand_collector_num_out_ports_sp                    2 # number of collector unit in ports (default = 1)
-gpgpu_operand_collector_num_out_ports_sfu                    1 # number of collector unit in ports (default = 1)
-gpgpu_operand_collector_num_out_ports_mem                    1 # number of collector unit in ports (default = 1)
-gpgpu_operand_collector_num_out_ports_gen                    0 # number of collector unit in ports (default = 0)
-gpgpu_coalesce_arch                   13 # Coalescing arch (default = 13, anything else is off for now)
-gpgpu_num_sched_per_core                    2 # Number of warp schedulers per core
-gpgpu_max_insn_issue_per_warp                    1 # Max number of instructions that can be issued per warp in one cycle by scheduler
-gpgpu_simt_core_sim_order                    1 # Select the simulation order of cores in a cluster (0=Fix, 1=Round-Robin)
-gpgpu_pipeline_widths        2,1,1,2,1,1,2 # Pipeline widths ID_OC_SP,ID_OC_SFU,ID_OC_MEM,OC_EX_SP,OC_EX_SFU,OC_EX_MEM,EX_WB
-gpgpu_num_sp_units                     2 # Number of SP units (default=1)
-gpgpu_num_sfu_units                    1 # Number of SF units (default=1)
-gpgpu_num_mem_units                    1 # Number if ldst units (default=1) WARNING: not hooked up to anything
-gpgpu_scheduler                      gto # Scheduler configuration: < lrr | gto | two_level_active > If two_level_active:<num_active_warps>:<inner_prioritization>:<outer_prioritization>For complete list of prioritization values see shader.h enum scheduler_prioritization_typeDefault: gto
-gpgpu_dram_scheduler                    1 # 0 = fifo, 1 = FR-FCFS (defaul)
-gpgpu_dram_partition_queues              8:8:8:8 # i2$:$2d:d2$:$2i
-l2_ideal                               0 # Use a ideal L2 cache that always hit
-gpgpu_cache:dl2     64:128:8,L:B:m:W:L,A:32:4,4:0,32 # unified banked L2 data cache config  {<nsets>:<bsize>:<assoc>,<rep>:<wr>:<alloc>:<wr_alloc>,<mshr>:<N>:<merge>,<mq>}
-gpgpu_cache:dl2_texture_only                    0 # L2 cache used for texture only
-gpgpu_n_mem                            6 # number of memory modules (e.g. memory controllers) in gpu
-gpgpu_n_sub_partition_per_mchannel                    2 # number of memory subpartition in each memory module
-gpgpu_n_mem_per_ctrlr                    2 # number of memory chips per memory controller
-gpgpu_memlatency_stat                   14 # track and display latency statistics 0x2 enables MC, 0x4 enables queue logs
-gpgpu_frfcfs_dram_sched_queue_size                   16 # 0 = unlimited (default); # entries per chip
-gpgpu_dram_return_queue_size                  116 # 0 = unlimited (default); # entries per chip
-gpgpu_dram_buswidth                    4 # default = 4 bytes (8 bytes per cycle at DDR)
-gpgpu_dram_burst_length                    2 # Burst length of each DRAM request (default = 4 data bus cycle)
-dram_data_command_freq_ratio                    4 # Frequency ratio between DRAM data bus and command bus (default = 2 times, i.e. DDR)
-gpgpu_dram_timing_opt nbk=16:CCD=2:RRD=6:RCD=12:RAS=28:RP=12:RC=40: CL=12:WL=4:CDLR=5:WR=12:nbkgrp=4:CCDL=3:RTPL=2 # DRAM timing parameters = {nbk:tCCD:tRRD:tRCD:tRAS:tRP:tRC:CL:WL:tCDLR:tWR:nbkgrp:tCCDL:tRTPL}
-rop_latency                          120 # ROP queue latency (default 85)
-dram_latency                         100 # DRAM latency (default 30)
-gpgpu_mem_addr_mapping dramid@8;00000000.00000000.00000000.00000000.0000RRRR.RRRRRRRR.BBBCCCCB.CCSSSSSS # mapping memory address to dram model {dramid@<start bit>;<memory address map>}
-gpgpu_mem_addr_test                    0 # run sweep test to check address mapping for aliased address
-gpgpu_mem_address_mask                    1 # 0 = old addressing mask, 1 = new addressing mask, 2 = new add. mask + flipped bank sel and chip sel bits
-gpuwattch_xml_file  gpuwattch_gtx480.xml # GPUWattch XML file
-power_simulation_enabled                    0 # Turn on power simulator (1=On, 0=Off)
-power_per_cycle_dump                    0 # Dump detailed power output each cycle
-power_trace_enabled                    0 # produce a file for the power trace (1=On, 0=Off)
-power_trace_zlevel                     6 # Compression level of the power trace output log (0=no comp, 9=highest)
-steady_power_levels_enabled                    0 # produce a file for the steady power levels (1=On, 0=Off)
-steady_state_definition                  8:4 # allowed deviation:number of samples
-gpgpu_max_cycle                        0 # terminates gpu simulation early (0 = no limit)
-gpgpu_max_insn                         0 # terminates gpu simulation early (0 = no limit)
-gpgpu_max_cta                          0 # terminates gpu simulation early (0 = no limit)
-gpgpu_runtime_stat                   500 # display runtime statistics such as dram utilization {<freq>:<flag>}
-liveness_message_freq                    1 # Minimum number of seconds between simulation liveness messages (0 = always print)
-gpgpu_flush_l1_cache                    0 # Flush L1 cache at the end of each kernel call
-gpgpu_flush_l2_cache                    0 # Flush L2 cache at the end of each kernel call
-gpgpu_deadlock_detect                    1 # Stop the simulation at deadlock (1=on (default), 0=off)
-gpgpu_ptx_instruction_classification                    0 # if enabled will classify ptx instruction types per kernel (Max 255 kernels now)
-gpgpu_ptx_sim_mode                     0 # Select between Performance (default) or Functional simulation (1)
-gpgpu_clock_domains 700.0:700.0:700.0:924.0 # Clock Domain Frequencies in MhZ {<Core Clock>:<ICNT Clock>:<L2 Clock>:<DRAM Clock>}
-gpgpu_max_concurrent_kernel                    8 # maximum kernels that can run concurrently on GPU
-gpgpu_cflog_interval                    0 # Interval between each snapshot in control flow logger
-visualizer_enabled                     0 # Turn on visualizer output (1=On, 0=Off)
-visualizer_outputfile                 NULL # Specifies the output log file for visualizer
-visualizer_zlevel                      6 # Compression level of the visualizer output log (0=no comp, 9=highest)
-trace_enabled                          0 # Turn on traces
-trace_components                    none # comma seperated list of traces to enable. Complete list found in trace_streams.tup. Default none
-trace_sampling_core                    0 # The core which is printed using CORE_DPRINTF. Default 0
-trace_sampling_memory_partition                   -1 # The memory partition which is printed using MEMPART_DPRINTF. Default -1 (i.e. all)
-enable_ptx_file_line_stats                    1 # Turn on PTX source line statistic profiling. (1 = On)
-ptx_line_stats_filename gpgpu_inst_stats.txt # Output file for PTX source line statistics.
-save_embedded_ptx                      0 # saves ptx files embedded in binary as <n>.ptx
-keep                                   0 # keep intermediate files created by GPGPU-Sim when interfacing with external programs
-gpgpu_ptx_save_converted_ptxplus                    0 # Saved converted ptxplus to a file
-ptx_opcode_latency_int         4,13,4,5,145 # Opcode latencies for integers <ADD,MAX,MUL,MAD,DIV>Default 1,1,19,25,145
-ptx_opcode_latency_fp          4,13,4,5,39 # Opcode latencies for single precision floating points <ADD,MAX,MUL,MAD,DIV>Default 1,1,1,1,30
-ptx_opcode_latency_dp         8,19,8,8,330 # Opcode latencies for double precision floating points <ADD,MAX,MUL,MAD,DIV>Default 8,8,8,8,335
-ptx_opcode_initiation_int            1,2,2,1,8 # Opcode initiation intervals for integers <ADD,MAX,MUL,MAD,DIV>Default 1,1,4,4,32
-ptx_opcode_initiation_fp            1,2,1,1,4 # Opcode initiation intervals for single precision floating points <ADD,MAX,MUL,MAD,DIV>Default 1,1,1,1,5
-ptx_opcode_initiation_dp         8,16,8,8,130 # Opcode initiation intervals for double precision floating points <ADD,MAX,MUL,MAD,DIV>Default 8,8,8,8,130
DRAM Timing Options:
nbk                                    16 # number of banks
CCD                                     2 # column to column delay
RRD                                     6 # minimal delay between activation of rows in different banks
RCD                                    12 # row to column delay
RAS                                    28 # time needed to activate row
RP                                     12 # time needed to precharge (deactivate) row
RC                                     40 # row cycle time
CDLR                                    5 # switching from write to read (changes tWTR)
WR                                     12 # last data-in to row precharge
CL                                     12 # CAS latency
WL                                      4 # Write latency
nbkgrp                                  4 # number of bank groups
CCDL                                    3 # column to column delay between accesses to different bank groups
RTPL                                    2 # read to precharge delay between accesses to different bank groups
Total number of memory sub partition = 12
addr_dec_mask[CHIP]  = 0000000000000000 	high:64 low:0
addr_dec_mask[BK]    = 000000000000e100 	high:16 low:8
addr_dec_mask[ROW]   = 000000000fff0000 	high:28 low:16
addr_dec_mask[COL]   = 0000000000001eff 	high:13 low:0
addr_dec_mask[BURST] = 000000000000003f 	high:6 low:0
sub_partition_id_mask = 0000000000000100
GPGPU-Sim uArch: clock freqs: 700000000.000000:700000000.000000:700000000.000000:924000000.000000
GPGPU-Sim uArch: clock periods: 0.00000000142857142857:0.00000000142857142857:0.00000000142857142857:0.00000000108225108225
*** Initializing Memory Statistics ***
GPGPU-Sim uArch: interconnect node map (shaderID+MemID to icntID)
GPGPU-Sim uArch: Memory nodes ID start from index: 15
GPGPU-Sim uArch:    0   1   2   3   4
GPGPU-Sim uArch:    5   6   7   8   9
GPGPU-Sim uArch:   10  11  12  13  14
GPGPU-Sim uArch:   15  16  17  18  19
GPGPU-Sim uArch:   20  21  22  23  24
GPGPU-Sim uArch:   25  26
GPGPU-Sim uArch: interconnect node reverse map (icntID to shaderID+MemID)
GPGPU-Sim uArch: Memory nodes start from ID: 15
GPGPU-Sim uArch:    0   1   2   3   4
GPGPU-Sim uArch:    5   6   7   8   9
GPGPU-Sim uArch:   10  11  12  13  14
GPGPU-Sim uArch:   15  16  17  18  19
GPGPU-Sim uArch:   20  21  22  23  24
GPGPU-Sim uArch:   25  26
e389dacb331e7fcddf4abf4a164344f1  /sciclone/data20/adwait/applications/benchmarks/CUDA/BlackScholes/gpgpu_ptx_sim__BlackScholes
GPGPU-Sim uArch: performance model initialization complete.
GPGPU-Sim PTX: __cudaRegisterFatBinary, fat_cubin_handle = 1, filename=BlackScholes.cu
self exe links to: /sciclone/data20/adwait/applications/benchmarks/CUDA/BlackScholes/gpgpu_ptx_sim__BlackScholes
Running md5sum using "md5sum /sciclone/data20/adwait/applications/benchmarks/CUDA/BlackScholes/gpgpu_ptx_sim__BlackScholes "
Parsing file _cuobjdump_complete_output_6jfJWQ
######### cuobjdump parser ########
## Adding new section ELF
Adding arch: sm_20
Adding identifier: BlackScholes.cu
## Adding new section PTX
Adding ptx filename: _cuobjdump_1.ptx
Adding arch: sm_20
Adding identifier: BlackScholes.cu
Done parsing!!!
GPGPU-Sim PTX: __cudaRegisterFunction _Z15BlackScholesGPUPfS_S_S_S_ffi : hostFun 0x0x405752, fat_cubin_handle = 1
GPGPU-Sim PTX: instruction assembly for function '_Z15BlackScholesGPUPfS_S_S_S_ffi'...   done.
GPGPU-Sim PTX: finding reconvergence points for '_Z15BlackScholesGPUPfS_S_S_S_ffi'...
GPGPU-Sim PTX: Finding dominators for '_Z15BlackScholesGPUPfS_S_S_S_ffi'...
GPGPU-Sim PTX: Finding immediate dominators for '_Z15BlackScholesGPUPfS_S_S_S_ffi'...
GPGPU-Sim PTX: Finding postdominators for '_Z15BlackScholesGPUPfS_S_S_S_ffi'...
GPGPU-Sim PTX: Finding immediate postdominators for '_Z15BlackScholesGPUPfS_S_S_S_ffi'...
GPGPU-Sim PTX: pre-decoding instructions for '_Z15BlackScholesGPUPfS_S_S_S_ffi'...
GPGPU-Sim PTX: reconvergence points for _Z15BlackScholesGPUPfS_S_S_S_ffi...
GPGPU-Sim PTX:  1 (potential) branch divergence @  PC=0x040 (_1.ptx:76) @%p1 bra $Lt_0_2818;
GPGPU-Sim PTX:    immediate post dominator      @  PC=0x3f8 (_1.ptx:200) exit;
GPGPU-Sim PTX:  2 (potential) branch divergence @  PC=0x3f0 (_1.ptx:197) @%p4 bra $Lt_0_3330;
GPGPU-Sim PTX:    immediate post dominator      @  PC=0x3f8 (_1.ptx:200) exit;
GPGPU-Sim PTX: ... end of reconvergence points for _Z15BlackScholesGPUPfS_S_S_S_ffi
GPGPU-Sim PTX: ... done pre-decoding instructions for '_Z15BlackScholesGPUPfS_S_S_S_ffi'.
GPGPU-Sim PTX: finished parsing EMBEDDED .ptx file _1.ptx
Adding _cuobjdump_1.ptx with cubin handle 1
GPGPU-Sim PTX: extracting embedded .ptx to temporary file "_ptx_WTb49w"
Running: cat _ptx_WTb49w | sed 's/.version 1.5/.version 1.4/' | sed 's/, texmode_independent//' | sed 's/\(\.extern \.const\[1\] .b8 \w\+\)\[\]/\1\[1\]/' | sed 's/const\[.\]/const\[0\]/g' > _ptx2_es7GSd
GPGPU-Sim PTX: generating ptxinfo using "$CUDA_INSTALL_PATH/bin/ptxas --gpu-name=sm_20 -v _ptx2_es7GSd --output-file  /dev/null 2> _ptx_WTb49winfo"
GPGPU-Sim PTX: Kernel '_Z15BlackScholesGPUPfS_S_S_S_ffi' : regs=31, lmem=0, smem=0, cmem=128
GPGPU-Sim PTX: removing ptxinfo using "rm -f _ptx_WTb49w _ptx2_es7GSd _ptx_WTb49winfo"
GPGPU-Sim PTX: loading globals with explicit initializers... 
GPGPU-Sim PTX: finished loading globals (0 bytes total).
GPGPU-Sim PTX: loading constants with explicit initializers...  done.
Initializing data...
...allocating CPU memory for options.
...allocating GPU memory for options.
...generating input data in CPU mem.
...copying input data to GPU mem.
Data init done.
Executing Black-Scholes GPU kernel (1 iterations)...
GPGPU-Sim: synchronize waiting for inactive GPU simulation
GPGPU-Sim API: Stream Manager State
GPGPU-Sim: detected inactive GPU simulation thread

GPGPU-Sim PTX: cudaLaunch for 0x0x405752 (mode=performance simulation) on stream 0
GPGPU-Sim PTX: pushing kernel '_Z15BlackScholesGPUPfS_S_S_S_ffi' to stream 0, gridDim= (480,1,1) blockDim = (128,1,1) 
kernel '_Z15BlackScholesGPUPfS_S_S_S_ffi' transfer to GPU hardware scheduler
GPGPU-Sim uArch: Shader 1 bind to kernel 1 '_Z15BlackScholesGPUPfS_S_S_S_ffi'
GPGPU-Sim uArch: CTA/core = 8, limited by: regs cta_limit
GPGPU-Sim uArch: core:  1, cta: 0 initialized @(1,0)
GPGPU-Sim uArch: Shader 2 bind to kernel 1 '_Z15BlackScholesGPUPfS_S_S_S_ffi'
GPGPU-Sim uArch: core:  2, cta: 0 initialized @(1,0)
GPGPU-Sim uArch: Shader 3 bind to kernel 1 '_Z15BlackScholesGPUPfS_S_S_S_ffi'
GPGPU-Sim uArch: core:  3, cta: 0 initialized @(1,0)
GPGPU-Sim uArch: Shader 4 bind to kernel 1 '_Z15BlackScholesGPUPfS_S_S_S_ffi'
GPGPU-Sim uArch: core:  4, cta: 0 initialized @(1,0)
GPGPU-Sim uArch: Shader 5 bind to kernel 1 '_Z15BlackScholesGPUPfS_S_S_S_ffi'
GPGPU-Sim uArch: core:  5, cta: 0 initialized @(1,0)
GPGPU-Sim uArch: Shader 6 bind to kernel 1 '_Z15BlackScholesGPUPfS_S_S_S_ffi'
GPGPU-Sim uArch: core:  6, cta: 0 initialized @(1,0)
GPGPU-Sim uArch: Shader 7 bind to kernel 1 '_Z15BlackScholesGPUPfS_S_S_S_ffi'
GPGPU-Sim uArch: core:  7, cta: 0 initialized @(1,0)
GPGPU-Sim uArch: Shader 8 bind to kernel 1 '_Z15BlackScholesGPUPfS_S_S_S_ffi'
GPGPU-Sim uArch: core:  8, cta: 0 initialized @(1,0)
GPGPU-Sim uArch: Shader 9 bind to kernel 1 '_Z15BlackScholesGPUPfS_S_S_S_ffi'
GPGPU-Sim uArch: core:  9, cta: 0 initialized @(1,0)
GPGPU-Sim uArch: Shader 10 bind to kernel 1 '_Z15BlackScholesGPUPfS_S_S_S_ffi'
GPGPU-Sim uArch: core: 10, cta: 0 initialized @(1,0)
GPGPU-Sim uArch: Shader 11 bind to kernel 1 '_Z15BlackScholesGPUPfS_S_S_S_ffi'
GPGPU-Sim uArch: core: 11, cta: 0 initialized @(1,0)
GPGPU-Sim uArch: Shader 12 bind to kernel 1 '_Z15BlackScholesGPUPfS_S_S_S_ffi'
GPGPU-Sim uArch: core: 12, cta: 0 initialized @(1,0)
GPGPU-Sim uArch: Shader 13 bind to kernel 1 '_Z15BlackScholesGPUPfS_S_S_S_ffi'
GPGPU-Sim uArch: core: 13, cta: 0 initialized @(1,0)
GPGPU-Sim uArch: Shader 14 bind to kernel 1 '_Z15BlackScholesGPUPfS_S_S_S_ffi'
GPGPU-Sim uArch: core: 14, cta: 0 initialized @(1,0)
GPGPU-Sim uArch: Shader 0 bind to kernel 1 '_Z15BlackScholesGPUPfS_S_S_S_ffi'
GPGPU-Sim uArch: core:  0, cta: 0 initialized @(1,0)
GPGPU-Sim uArch: core:  1, cta: 1 initialized @(2,0)
GPGPU-Sim uArch: core:  2, cta: 1 initialized @(2,0)
GPGPU-Sim uArch: core:  3, cta: 1 initialized @(2,0)
GPGPU-Sim uArch: core:  4, cta: 1 initialized @(2,0)
GPGPU-Sim uArch: core:  5, cta: 1 initialized @(2,0)
GPGPU-Sim uArch: core:  6, cta: 1 initialized @(2,0)
GPGPU-Sim uArch: core:  7, cta: 1 initialized @(2,0)
GPGPU-Sim uArch: core:  8, cta: 1 initialized @(2,0)
GPGPU-Sim uArch: core:  9, cta: 1 initialized @(2,0)
GPGPU-Sim uArch: core: 10, cta: 1 initialized @(2,0)
GPGPU-Sim uArch: core: 11, cta: 1 initialized @(2,0)
GPGPU-Sim uArch: core: 12, cta: 1 initialized @(2,0)
GPGPU-Sim uArch: core: 13, cta: 1 initialized @(2,0)
GPGPU-Sim uArch: core: 14, cta: 1 initialized @(2,0)
GPGPU-Sim uArch: core:  0, cta: 1 initialized @(2,0)
GPGPU-Sim uArch: core:  1, cta: 2 initialized @(3,0)
GPGPU-Sim uArch: core:  2, cta: 2 initialized @(3,0)
GPGPU-Sim uArch: core:  3, cta: 2 initialized @(3,0)
GPGPU-Sim uArch: core:  4, cta: 2 initialized @(3,0)
GPGPU-Sim uArch: core:  5, cta: 2 initialized @(3,0)
GPGPU-Sim uArch: core:  6, cta: 2 initialized @(3,0)
GPGPU-Sim uArch: core:  7, cta: 2 initialized @(3,0)
GPGPU-Sim uArch: core:  8, cta: 2 initialized @(3,0)
GPGPU-Sim uArch: core:  9, cta: 2 initialized @(3,0)
GPGPU-Sim uArch: core: 10, cta: 2 initialized @(3,0)
GPGPU-Sim uArch: core: 11, cta: 2 initialized @(3,0)
GPGPU-Sim uArch: core: 12, cta: 2 initialized @(3,0)
GPGPU-Sim uArch: core: 13, cta: 2 initialized @(3,0)
GPGPU-Sim uArch: core: 14, cta: 2 initialized @(3,0)
GPGPU-Sim uArch: core:  0, cta: 2 initialized @(3,0)
GPGPU-Sim uArch: core:  1, cta: 3 initialized @(4,0)
GPGPU-Sim uArch: core:  2, cta: 3 initialized @(4,0)
GPGPU-Sim uArch: core:  3, cta: 3 initialized @(4,0)
GPGPU-Sim uArch: core:  4, cta: 3 initialized @(4,0)
GPGPU-Sim uArch: core:  5, cta: 3 initialized @(4,0)
GPGPU-Sim uArch: core:  6, cta: 3 initialized @(4,0)
GPGPU-Sim uArch: core:  7, cta: 3 initialized @(4,0)
GPGPU-Sim uArch: core:  8, cta: 3 initialized @(4,0)
GPGPU-Sim uArch: core:  9, cta: 3 initialized @(4,0)
GPGPU-Sim uArch: core: 10, cta: 3 initialized @(4,0)
GPGPU-Sim uArch: core: 11, cta: 3 initialized @(4,0)
GPGPU-Sim uArch: core: 12, cta: 3 initialized @(4,0)
GPGPU-Sim uArch: core: 13, cta: 3 initialized @(4,0)
GPGPU-Sim uArch: core: 14, cta: 3 initialized @(4,0)
GPGPU-Sim uArch: core:  0, cta: 3 initialized @(4,0)
GPGPU-Sim uArch: core:  1, cta: 4 initialized @(5,0)
GPGPU-Sim uArch: core:  2, cta: 4 initialized @(5,0)
GPGPU-Sim uArch: core:  3, cta: 4 initialized @(5,0)
GPGPU-Sim uArch: core:  4, cta: 4 initialized @(5,0)
GPGPU-Sim uArch: core:  5, cta: 4 initialized @(5,0)
GPGPU-Sim uArch: core:  6, cta: 4 initialized @(5,0)
GPGPU-Sim uArch: core:  7, cta: 4 initialized @(5,0)
GPGPU-Sim uArch: core:  8, cta: 4 initialized @(5,0)
GPGPU-Sim uArch: core:  9, cta: 4 initialized @(5,0)
GPGPU-Sim uArch: core: 10, cta: 4 initialized @(5,0)
GPGPU-Sim uArch: core: 11, cta: 4 initialized @(5,0)
GPGPU-Sim uArch: core: 12, cta: 4 initialized @(5,0)
GPGPU-Sim uArch: core: 13, cta: 4 initialized @(5,0)
GPGPU-Sim uArch: core: 14, cta: 4 initialized @(5,0)
GPGPU-Sim uArch: core:  0, cta: 4 initialized @(5,0)
GPGPU-Sim uArch: core:  1, cta: 5 initialized @(6,0)
GPGPU-Sim uArch: core:  2, cta: 5 initialized @(6,0)
GPGPU-Sim uArch: core:  3, cta: 5 initialized @(6,0)
GPGPU-Sim uArch: core:  4, cta: 5 initialized @(6,0)
GPGPU-Sim uArch: core:  5, cta: 5 initialized @(6,0)
GPGPU-Sim uArch: core:  6, cta: 5 initialized @(6,0)
GPGPU-Sim uArch: core:  7, cta: 5 initialized @(6,0)
GPGPU-Sim uArch: core:  8, cta: 5 initialized @(6,0)
GPGPU-Sim uArch: core:  9, cta: 5 initialized @(6,0)
GPGPU-Sim uArch: core: 10, cta: 5 initialized @(6,0)
GPGPU-Sim uArch: core: 11, cta: 5 initialized @(6,0)
GPGPU-Sim uArch: core: 12, cta: 5 initialized @(6,0)
GPGPU-Sim uArch: core: 13, cta: 5 initialized @(6,0)
GPGPU-Sim uArch: core: 14, cta: 5 initialized @(6,0)
GPGPU-Sim uArch: core:  0, cta: 5 initialized @(6,0)
GPGPU-Sim uArch: core:  1, cta: 6 initialized @(7,0)
GPGPU-Sim uArch: core:  2, cta: 6 initialized @(7,0)
GPGPU-Sim uArch: core:  3, cta: 6 initialized @(7,0)
GPGPU-Sim uArch: core:  4, cta: 6 initialized @(7,0)
GPGPU-Sim uArch: core:  5, cta: 6 initialized @(7,0)
GPGPU-Sim uArch: core:  6, cta: 6 initialized @(7,0)
GPGPU-Sim uArch: core:  7, cta: 6 initialized @(7,0)
GPGPU-Sim uArch: core:  8, cta: 6 initialized @(7,0)
GPGPU-Sim uArch: core:  9, cta: 6 initialized @(7,0)
GPGPU-Sim uArch: core: 10, cta: 6 initialized @(7,0)
GPGPU-Sim uArch: core: 11, cta: 6 initialized @(7,0)
GPGPU-Sim uArch: core: 12, cta: 6 initialized @(7,0)
GPGPU-Sim uArch: core: 13, cta: 6 initialized @(7,0)
GPGPU-Sim uArch: core: 14, cta: 6 initialized @(7,0)
GPGPU-Sim uArch: core:  0, cta: 6 initialized @(7,0)
GPGPU-Sim uArch: core:  1, cta: 7 initialized @(8,0)
GPGPU-Sim uArch: core:  2, cta: 7 initialized @(8,0)
GPGPU-Sim uArch: core:  3, cta: 7 initialized @(8,0)
GPGPU-Sim uArch: core:  4, cta: 7 initialized @(8,0)
GPGPU-Sim uArch: core:  5, cta: 7 initialized @(8,0)
GPGPU-Sim uArch: core:  6, cta: 7 initialized @(8,0)
GPGPU-Sim uArch: core:  7, cta: 7 initialized @(8,0)
GPGPU-Sim uArch: core:  8, cta: 7 initialized @(8,0)
GPGPU-Sim uArch: core:  9, cta: 7 initialized @(8,0)
GPGPU-Sim uArch: core: 10, cta: 7 initialized @(8,0)
GPGPU-Sim uArch: core: 11, cta: 7 initialized @(8,0)
GPGPU-Sim uArch: core: 12, cta: 7 initialized @(8,0)
GPGPU-Sim uArch: core: 13, cta: 7 initialized @(8,0)
GPGPU-Sim uArch: core: 14, cta: 7 initialized @(8,0)
GPGPU-Sim uArch: core:  0, cta: 7 initialized @(8,0)
GPGPU-Sim PTX: 100000 instructions simulated : ctaid=(112,0,0) tid=(95,0,0)
GPGPU-Sim uArch: cycles simulated: 500  inst.: 92032 (ipc=184.1) sim_rate=23008 (inst/sec) elapsed = 0:0:00:04 / Fri Mar  4 03:51:32 2016
GPGPU-Sim PTX: 200000 instructions simulated : ctaid=(101,0,0) tid=(31,0,0)
GPGPU-Sim PTX: 300000 instructions simulated : ctaid=(72,0,0) tid=(95,0,0)
GPGPU-Sim PTX: 400000 instructions simulated : ctaid=(52,0,0) tid=(95,0,0)
GPGPU-Sim uArch: cycles simulated: 1500  inst.: 421856 (ipc=281.2) sim_rate=84371 (inst/sec) elapsed = 0:0:00:05 / Fri Mar  4 03:51:33 2016
GPGPU-Sim uArch: cycles simulated: 3000  inst.: 454816 (ipc=151.6) sim_rate=75802 (inst/sec) elapsed = 0:0:00:06 / Fri Mar  4 03:51:34 2016
GPGPU-Sim PTX: 500000 instructions simulated : ctaid=(108,0,0) tid=(31,0,0)
GPGPU-Sim PTX: 600000 instructions simulated : ctaid=(20,0,0) tid=(31,0,0)
GPGPU-Sim uArch: cycles simulated: 4000  inst.: 625152 (ipc=156.3) sim_rate=89307 (inst/sec) elapsed = 0:0:00:07 / Fri Mar  4 03:51:35 2016
GPGPU-Sim PTX: 700000 instructions simulated : ctaid=(41,0,0) tid=(31,0,0)
GPGPU-Sim PTX: 800000 instructions simulated : ctaid=(64,0,0) tid=(63,0,0)
GPGPU-Sim PTX: 900000 instructions simulated : ctaid=(78,0,0) tid=(95,0,0)
GPGPU-Sim uArch: cycles simulated: 5000  inst.: 955424 (ipc=191.1) sim_rate=119428 (inst/sec) elapsed = 0:0:00:08 / Fri Mar  4 03:51:36 2016
GPGPU-Sim PTX: 1000000 instructions simulated : ctaid=(25,0,0) tid=(31,0,0)
GPGPU-Sim PTX: 1100000 instructions simulated : ctaid=(24,0,0) tid=(127,0,0)
GPGPU-Sim PTX: 1200000 instructions simulated : ctaid=(35,0,0) tid=(127,0,0)
GPGPU-Sim PTX: 1300000 instructions simulated : ctaid=(61,0,0) tid=(31,0,0)
GPGPU-Sim PTX: 1400000 instructions simulated : ctaid=(73,0,0) tid=(63,0,0)
GPGPU-Sim PTX: 1500000 instructions simulated : ctaid=(86,0,0) tid=(63,0,0)
GPGPU-Sim PTX: 1600000 instructions simulated : ctaid=(74,0,0) tid=(127,0,0)
GPGPU-Sim uArch: cycles simulated: 6000  inst.: 1639424 (ipc=273.2) sim_rate=182158 (inst/sec) elapsed = 0:0:00:09 / Fri Mar  4 03:51:37 2016
GPGPU-Sim PTX: 1700000 instructions simulated : ctaid=(92,0,0) tid=(95,0,0)
GPGPU-Sim PTX: 1800000 instructions simulated : ctaid=(114,0,0) tid=(127,0,0)
GPGPU-Sim uArch: cycles simulated: 6500  inst.: 1814624 (ipc=279.2) sim_rate=181462 (inst/sec) elapsed = 0:0:00:10 / Fri Mar  4 03:51:38 2016
GPGPU-Sim uArch: cycles simulated: 7500  inst.: 1817248 (ipc=242.3) sim_rate=165204 (inst/sec) elapsed = 0:0:00:11 / Fri Mar  4 03:51:39 2016
GPGPU-Sim PTX: 1900000 instructions simulated : ctaid=(119,0,0) tid=(127,0,0)
GPGPU-Sim uArch: cycles simulated: 9000  inst.: 1904672 (ipc=211.6) sim_rate=158722 (inst/sec) elapsed = 0:0:00:12 / Fri Mar  4 03:51:40 2016
GPGPU-Sim PTX: 2000000 instructions simulated : ctaid=(46,0,0) tid=(95,0,0)
GPGPU-Sim PTX: 2100000 instructions simulated : ctaid=(1,0,0) tid=(127,0,0)
GPGPU-Sim uArch: cycles simulated: 10000  inst.: 2092384 (ipc=209.2) sim_rate=160952 (inst/sec) elapsed = 0:0:00:13 / Fri Mar  4 03:51:41 2016
GPGPU-Sim PTX: 2200000 instructions simulated : ctaid=(37,0,0) tid=(31,0,0)
GPGPU-Sim PTX: 2300000 instructions simulated : ctaid=(5,0,0) tid=(127,0,0)
GPGPU-Sim PTX: 2400000 instructions simulated : ctaid=(69,0,0) tid=(95,0,0)
GPGPU-Sim uArch: cycles simulated: 11000  inst.: 2415200 (ipc=219.6) sim_rate=172514 (inst/sec) elapsed = 0:0:00:14 / Fri Mar  4 03:51:42 2016
GPGPU-Sim PTX: 2500000 instructions simulated : ctaid=(61,0,0) tid=(31,0,0)
GPGPU-Sim PTX: 2600000 instructions simulated : ctaid=(12,0,0) tid=(31,0,0)
GPGPU-Sim uArch: cycles simulated: 12000  inst.: 2616512 (ipc=218.0) sim_rate=174434 (inst/sec) elapsed = 0:0:00:15 / Fri Mar  4 03:51:43 2016
GPGPU-Sim PTX: 2700000 instructions simulated : ctaid=(78,0,0) tid=(95,0,0)
GPGPU-Sim PTX: 2800000 instructions simulated : ctaid=(115,0,0) tid=(95,0,0)
GPGPU-Sim uArch: cycles simulated: 13000  inst.: 2795008 (ipc=215.0) sim_rate=174688 (inst/sec) elapsed = 0:0:00:16 / Fri Mar  4 03:51:44 2016
GPGPU-Sim PTX: 2900000 instructions simulated : ctaid=(11,0,0) tid=(63,0,0)
GPGPU-Sim PTX: 3000000 instructions simulated : ctaid=(9,0,0) tid=(127,0,0)
GPGPU-Sim uArch: cycles simulated: 14500  inst.: 3034176 (ipc=209.3) sim_rate=178480 (inst/sec) elapsed = 0:0:00:17 / Fri Mar  4 03:51:45 2016
GPGPU-Sim PTX: 3100000 instructions simulated : ctaid=(95,0,0) tid=(31,0,0)
GPGPU-Sim PTX: 3200000 instructions simulated : ctaid=(9,0,0) tid=(31,0,0)
GPGPU-Sim uArch: cycles simulated: 16000  inst.: 3265248 (ipc=204.1) sim_rate=181402 (inst/sec) elapsed = 0:0:00:18 / Fri Mar  4 03:51:46 2016
GPGPU-Sim PTX: 3300000 instructions simulated : ctaid=(70,0,0) tid=(95,0,0)
GPGPU-Sim PTX: 3400000 instructions simulated : ctaid=(56,0,0) tid=(31,0,0)
GPGPU-Sim PTX: 3500000 instructions simulated : ctaid=(67,0,0) tid=(31,0,0)
GPGPU-Sim uArch: cycles simulated: 17500  inst.: 3544576 (ipc=202.5) sim_rate=186556 (inst/sec) elapsed = 0:0:00:19 / Fri Mar  4 03:51:47 2016
GPGPU-Sim PTX: 3600000 instructions simulated : ctaid=(5,0,0) tid=(95,0,0)
GPGPU-Sim PTX: 3700000 instructions simulated : ctaid=(77,0,0) tid=(31,0,0)
GPGPU-Sim PTX: 3800000 instructions simulated : ctaid=(42,0,0) tid=(31,0,0)
GPGPU-Sim uArch: cycles simulated: 19000  inst.: 3836672 (ipc=201.9) sim_rate=191833 (inst/sec) elapsed = 0:0:00:20 / Fri Mar  4 03:51:48 2016
GPGPU-Sim PTX: 3900000 instructions simulated : ctaid=(45,0,0) tid=(95,0,0)
GPGPU-Sim PTX: 4000000 instructions simulated : ctaid=(15,0,0) tid=(127,0,0)
GPGPU-Sim PTX: 4100000 instructions simulated : ctaid=(110,0,0) tid=(31,0,0)
GPGPU-Sim uArch: cycles simulated: 20500  inst.: 4117664 (ipc=200.9) sim_rate=196079 (inst/sec) elapsed = 0:0:00:21 / Fri Mar  4 03:51:49 2016
GPGPU-Sim PTX: 4200000 instructions simulated : ctaid=(45,0,0) tid=(31,0,0)
GPGPU-Sim PTX: 4300000 instructions simulated : ctaid=(90,0,0) tid=(31,0,0)
GPGPU-Sim uArch: cycles simulated: 22000  inst.: 4341152 (ipc=197.3) sim_rate=197325 (inst/sec) elapsed = 0:0:00:22 / Fri Mar  4 03:51:50 2016
GPGPU-Sim PTX: 4400000 instructions simulated : ctaid=(31,0,0) tid=(31,0,0)
GPGPU-Sim PTX: 4500000 instructions simulated : ctaid=(50,0,0) tid=(95,0,0)
GPGPU-Sim PTX: 4600000 instructions simulated : ctaid=(40,0,0) tid=(95,0,0)
GPGPU-Sim uArch: cycles simulated: 23500  inst.: 4630720 (ipc=197.1) sim_rate=201335 (inst/sec) elapsed = 0:0:00:23 / Fri Mar  4 03:51:51 2016
GPGPU-Sim PTX: 4700000 instructions simulated : ctaid=(73,0,0) tid=(95,0,0)
GPGPU-Sim PTX: 4800000 instructions simulated : ctaid=(27,0,0) tid=(31,0,0)
GPGPU-Sim PTX: 4900000 instructions simulated : ctaid=(84,0,0) tid=(31,0,0)
GPGPU-Sim uArch: cycles simulated: 25000  inst.: 4902784 (ipc=196.1) sim_rate=204282 (inst/sec) elapsed = 0:0:00:24 / Fri Mar  4 03:51:52 2016
GPGPU-Sim PTX: 5000000 instructions simulated : ctaid=(9,0,0) tid=(95,0,0)
GPGPU-Sim PTX: 5100000 instructions simulated : ctaid=(21,0,0) tid=(95,0,0)
GPGPU-Sim PTX: 5200000 instructions simulated : ctaid=(57,0,0) tid=(63,0,0)
GPGPU-Sim uArch: cycles simulated: 26500  inst.: 5177952 (ipc=195.4) sim_rate=207118 (inst/sec) elapsed = 0:0:00:25 / Fri Mar  4 03:51:53 2016
GPGPU-Sim PTX: 5300000 instructions simulated : ctaid=(70,0,0) tid=(31,0,0)
GPGPU-Sim PTX: 5400000 instructions simulated : ctaid=(37,0,0) tid=(63,0,0)
GPGPU-Sim uArch: cycles simulated: 27500  inst.: 5368864 (ipc=195.2) sim_rate=206494 (inst/sec) elapsed = 0:0:00:26 / Fri Mar  4 03:51:54 2016
GPGPU-Sim PTX: 5500000 instructions simulated : ctaid=(25,0,0) tid=(63,0,0)
GPGPU-Sim PTX: 5600000 instructions simulated : ctaid=(11,0,0) tid=(31,0,0)
GPGPU-Sim uArch: cycles simulated: 29000  inst.: 5642048 (ipc=194.6) sim_rate=208964 (inst/sec) elapsed = 0:0:00:27 / Fri Mar  4 03:51:55 2016
GPGPU-Sim PTX: 5700000 instructions simulated : ctaid=(37,0,0) tid=(95,0,0)
GPGPU-Sim PTX: 5800000 instructions simulated : ctaid=(4,0,0) tid=(31,0,0)
GPGPU-Sim uArch: cycles simulated: 30000  inst.: 5820320 (ipc=194.0) sim_rate=207868 (inst/sec) elapsed = 0:0:00:28 / Fri Mar  4 03:51:56 2016
GPGPU-Sim PTX: 5900000 instructions simulated : ctaid=(16,0,0) tid=(31,0,0)
GPGPU-Sim PTX: 6000000 instructions simulated : ctaid=(24,0,0) tid=(31,0,0)
GPGPU-Sim uArch: cycles simulated: 31000  inst.: 5983456 (ipc=193.0) sim_rate=206326 (inst/sec) elapsed = 0:0:00:29 / Fri Mar  4 03:51:57 2016
GPGPU-Sim PTX: 6100000 instructions simulated : ctaid=(4,0,0) tid=(127,0,0)
GPGPU-Sim uArch: cycles simulated: 31500  inst.: 6102368 (ipc=193.7) sim_rate=203412 (inst/sec) elapsed = 0:0:00:30 / Fri Mar  4 03:51:58 2016
GPGPU-Sim PTX: 6200000 instructions simulated : ctaid=(66,0,0) tid=(31,0,0)
GPGPU-Sim PTX: 6300000 instructions simulated : ctaid=(48,0,0) tid=(95,0,0)
GPGPU-Sim uArch: cycles simulated: 32500  inst.: 6281248 (ipc=193.3) sim_rate=202620 (inst/sec) elapsed = 0:0:00:31 / Fri Mar  4 03:51:59 2016
GPGPU-Sim PTX: 6400000 instructions simulated : ctaid=(61,0,0) tid=(31,0,0)
GPGPU-Sim uArch: cycles simulated: 33500  inst.: 6470112 (ipc=193.1) sim_rate=202191 (inst/sec) elapsed = 0:0:00:32 / Fri Mar  4 03:52:00 2016
GPGPU-Sim PTX: 6500000 instructions simulated : ctaid=(68,0,0) tid=(63,0,0)
GPGPU-Sim PTX: 6600000 instructions simulated : ctaid=(1,0,0) tid=(127,0,0)
GPGPU-Sim uArch: cycles simulated: 34000  inst.: 6573888 (ipc=193.3) sim_rate=199208 (inst/sec) elapsed = 0:0:00:33 / Fri Mar  4 03:52:01 2016
GPGPU-Sim PTX: 6700000 instructions simulated : ctaid=(0,0,0) tid=(63,0,0)
GPGPU-Sim uArch: cycles simulated: 35000  inst.: 6740224 (ipc=192.6) sim_rate=198241 (inst/sec) elapsed = 0:0:00:34 / Fri Mar  4 03:52:02 2016
GPGPU-Sim PTX: 6800000 instructions simulated : ctaid=(46,0,0) tid=(63,0,0)
GPGPU-Sim PTX: 6900000 instructions simulated : ctaid=(68,0,0) tid=(31,0,0)
GPGPU-Sim uArch: cycles simulated: 36000  inst.: 6917056 (ipc=192.1) sim_rate=197630 (inst/sec) elapsed = 0:0:00:35 / Fri Mar  4 03:52:03 2016
GPGPU-Sim PTX: 7000000 instructions simulated : ctaid=(55,0,0) tid=(31,0,0)
GPGPU-Sim uArch: cycles simulated: 36500  inst.: 7016000 (ipc=192.2) sim_rate=194888 (inst/sec) elapsed = 0:0:00:36 / Fri Mar  4 03:52:04 2016
GPGPU-Sim PTX: 7100000 instructions simulated : ctaid=(12,0,0) tid=(95,0,0)
GPGPU-Sim PTX: 7200000 instructions simulated : ctaid=(115,0,0) tid=(95,0,0)
GPGPU-Sim uArch: cycles simulated: 37500  inst.: 7214560 (ipc=192.4) sim_rate=194988 (inst/sec) elapsed = 0:0:00:37 / Fri Mar  4 03:52:05 2016
GPGPU-Sim PTX: 7300000 instructions simulated : ctaid=(12,0,0) tid=(63,0,0)
GPGPU-Sim uArch: cycles simulated: 38000  inst.: 7309888 (ipc=192.4) sim_rate=192365 (inst/sec) elapsed = 0:0:00:38 / Fri Mar  4 03:52:06 2016
GPGPU-Sim PTX: 7400000 instructions simulated : ctaid=(4,0,0) tid=(63,0,0)
GPGPU-Sim PTX: 7500000 instructions simulated : ctaid=(50,0,0) tid=(63,0,0)
GPGPU-Sim uArch: cycles simulated: 39000  inst.: 7473888 (ipc=191.6) sim_rate=191638 (inst/sec) elapsed = 0:0:00:39 / Fri Mar  4 03:52:07 2016
GPGPU-Sim PTX: 7600000 instructions simulated : ctaid=(60,0,0) tid=(31,0,0)
GPGPU-Sim PTX: 7700000 instructions simulated : ctaid=(30,0,0) tid=(31,0,0)
GPGPU-Sim uArch: cycles simulated: 40000  inst.: 7678368 (ipc=192.0) sim_rate=191959 (inst/sec) elapsed = 0:0:00:40 / Fri Mar  4 03:52:08 2016
GPGPU-Sim PTX: 7800000 instructions simulated : ctaid=(19,0,0) tid=(63,0,0)
GPGPU-Sim uArch: cycles simulated: 40500  inst.: 7783040 (ipc=192.2) sim_rate=189830 (inst/sec) elapsed = 0:0:00:41 / Fri Mar  4 03:52:09 2016
GPGPU-Sim PTX: 7900000 instructions simulated : ctaid=(59,0,0) tid=(31,0,0)
GPGPU-Sim uArch: cycles simulated: 41500  inst.: 7943904 (ipc=191.4) sim_rate=189140 (inst/sec) elapsed = 0:0:00:42 / Fri Mar  4 03:52:10 2016
GPGPU-Sim PTX: 8000000 instructions simulated : ctaid=(6,0,0) tid=(127,0,0)
GPGPU-Sim PTX: 8100000 instructions simulated : ctaid=(84,0,0) tid=(95,0,0)
GPGPU-Sim uArch: cycles simulated: 42500  inst.: 8139744 (ipc=191.5) sim_rate=189296 (inst/sec) elapsed = 0:0:00:43 / Fri Mar  4 03:52:11 2016
GPGPU-Sim PTX: 8200000 instructions simulated : ctaid=(4,0,0) tid=(31,0,0)
GPGPU-Sim uArch: cycles simulated: 43000  inst.: 8220416 (ipc=191.2) sim_rate=186827 (inst/sec) elapsed = 0:0:00:44 / Fri Mar  4 03:52:12 2016
GPGPU-Sim PTX: 8300000 instructions simulated : ctaid=(85,0,0) tid=(95,0,0)
GPGPU-Sim PTX: 8400000 instructions simulated : ctaid=(2,0,0) tid=(95,0,0)
GPGPU-Sim uArch: cycles simulated: 44000  inst.: 8393056 (ipc=190.8) sim_rate=186512 (inst/sec) elapsed = 0:0:00:45 / Fri Mar  4 03:52:13 2016
GPGPU-Sim PTX: 8500000 instructions simulated : ctaid=(59,0,0) tid=(63,0,0)
GPGPU-Sim PTX: 8600000 instructions simulated : ctaid=(79,0,0) tid=(31,0,0)
GPGPU-Sim uArch: cycles simulated: 45000  inst.: 8573728 (ipc=190.5) sim_rate=186385 (inst/sec) elapsed = 0:0:00:46 / Fri Mar  4 03:52:14 2016
GPGPU-Sim PTX: 8700000 instructions simulated : ctaid=(45,0,0) tid=(63,0,0)
GPGPU-Sim uArch: cycles simulated: 45500  inst.: 8675552 (ipc=190.7) sim_rate=184586 (inst/sec) elapsed = 0:0:00:47 / Fri Mar  4 03:52:15 2016
GPGPU-Sim PTX: 8800000 instructions simulated : ctaid=(82,0,0) tid=(95,0,0)
GPGPU-Sim uArch: cycles simulated: 46500  inst.: 8856032 (ipc=190.5) sim_rate=184500 (inst/sec) elapsed = 0:0:00:48 / Fri Mar  4 03:52:16 2016
GPGPU-Sim PTX: 8900000 instructions simulated : ctaid=(88,0,0) tid=(31,0,0)
GPGPU-Sim uArch: cycles simulated: 47000  inst.: 8944736 (ipc=190.3) sim_rate=182545 (inst/sec) elapsed = 0:0:00:49 / Fri Mar  4 03:52:17 2016
GPGPU-Sim PTX: 9000000 instructions simulated : ctaid=(78,0,0) tid=(95,0,0)
GPGPU-Sim PTX: 9100000 instructions simulated : ctaid=(15,0,0) tid=(31,0,0)
GPGPU-Sim uArch: cycles simulated: 48000  inst.: 9140032 (ipc=190.4) sim_rate=182800 (inst/sec) elapsed = 0:0:00:50 / Fri Mar  4 03:52:18 2016
GPGPU-Sim PTX: 9200000 instructions simulated : ctaid=(36,0,0) tid=(95,0,0)
GPGPU-Sim PTX: 9300000 instructions simulated : ctaid=(3,0,0) tid=(127,0,0)
GPGPU-Sim uArch: cycles simulated: 49000  inst.: 9303776 (ipc=189.9) sim_rate=182426 (inst/sec) elapsed = 0:0:00:51 / Fri Mar  4 03:52:19 2016
GPGPU-Sim PTX: 9400000 instructions simulated : ctaid=(58,0,0) tid=(31,0,0)
GPGPU-Sim uArch: cycles simulated: 49500  inst.: 9411232 (ipc=190.1) sim_rate=180985 (inst/sec) elapsed = 0:0:00:52 / Fri Mar  4 03:52:20 2016
GPGPU-Sim PTX: 9500000 instructions simulated : ctaid=(4,0,0) tid=(127,0,0)
GPGPU-Sim PTX: 9600000 instructions simulated : ctaid=(2,0,0) tid=(127,0,0)
GPGPU-Sim uArch: cycles simulated: 50500  inst.: 9604768 (ipc=190.2) sim_rate=181222 (inst/sec) elapsed = 0:0:00:53 / Fri Mar  4 03:52:21 2016
GPGPU-Sim PTX: 9700000 instructions simulated : ctaid=(88,0,0) tid=(95,0,0)
GPGPU-Sim uArch: cycles simulated: 51000  inst.: 9716672 (ipc=190.5) sim_rate=179938 (inst/sec) elapsed = 0:0:00:54 / Fri Mar  4 03:52:22 2016
GPGPU-Sim PTX: 9800000 instructions simulated : ctaid=(0,0,0) tid=(95,0,0)
GPGPU-Sim PTX: 9900000 instructions simulated : ctaid=(36,0,0) tid=(95,0,0)
GPGPU-Sim uArch: cycles simulated: 52000  inst.: 9899712 (ipc=190.4) sim_rate=179994 (inst/sec) elapsed = 0:0:00:55 / Fri Mar  4 03:52:23 2016
GPGPU-Sim PTX: 10000000 instructions simulated : ctaid=(40,0,0) tid=(63,0,0)
GPGPU-Sim uArch: cycles simulated: 52500  inst.: 10000064 (ipc=190.5) sim_rate=178572 (inst/sec) elapsed = 0:0:00:56 / Fri Mar  4 03:52:24 2016
GPGPU-Sim PTX: 10100000 instructions simulated : ctaid=(77,0,0) tid=(31,0,0)
GPGPU-Sim PTX: 10200000 instructions simulated : ctaid=(6,0,0) tid=(63,0,0)
GPGPU-Sim uArch: cycles simulated: 53500  inst.: 10176480 (ipc=190.2) sim_rate=178534 (inst/sec) elapsed = 0:0:00:57 / Fri Mar  4 03:52:25 2016
GPGPU-Sim PTX: 10300000 instructions simulated : ctaid=(33,0,0) tid=(31,0,0)
GPGPU-Sim uArch: cycles simulated: 54500  inst.: 10344128 (ipc=189.8) sim_rate=178347 (inst/sec) elapsed = 0:0:00:58 / Fri Mar  4 03:52:26 2016
GPGPU-Sim PTX: 10400000 instructions simulated : ctaid=(31,0,0) tid=(31,0,0)
GPGPU-Sim uArch: cycles simulated: 55000  inst.: 10433952 (ipc=189.7) sim_rate=176846 (inst/sec) elapsed = 0:0:00:59 / Fri Mar  4 03:52:27 2016
GPGPU-Sim PTX: 10500000 instructions simulated : ctaid=(17,0,0) tid=(127,0,0)
GPGPU-Sim PTX: 10600000 instructions simulated : ctaid=(17,0,0) tid=(95,0,0)
GPGPU-Sim uArch: cycles simulated: 56000  inst.: 10628128 (ipc=189.8) sim_rate=177135 (inst/sec) elapsed = 0:0:01:00 / Fri Mar  4 03:52:28 2016
GPGPU-Sim PTX: 10700000 instructions simulated : ctaid=(12,0,0) tid=(127,0,0)
GPGPU-Sim PTX: 10800000 instructions simulated : ctaid=(73,0,0) tid=(31,0,0)
GPGPU-Sim uArch: cycles simulated: 57000  inst.: 10827616 (ipc=190.0) sim_rate=177501 (inst/sec) elapsed = 0:0:01:01 / Fri Mar  4 03:52:29 2016
GPGPU-Sim PTX: 10900000 instructions simulated : ctaid=(1,0,0) tid=(127,0,0)
GPGPU-Sim uArch: cycles simulated: 57500  inst.: 10938976 (ipc=190.2) sim_rate=176435 (inst/sec) elapsed = 0:0:01:02 / Fri Mar  4 03:52:30 2016
GPGPU-Sim PTX: 11000000 instructions simulated : ctaid=(11,0,0) tid=(127,0,0)
GPGPU-Sim PTX: 11100000 instructions simulated : ctaid=(23,0,0) tid=(63,0,0)
GPGPU-Sim uArch: cycles simulated: 58500  inst.: 11112864 (ipc=190.0) sim_rate=176394 (inst/sec) elapsed = 0:0:01:03 / Fri Mar  4 03:52:31 2016
GPGPU-Sim PTX: 11200000 instructions simulated : ctaid=(54,0,0) tid=(95,0,0)
GPGPU-Sim uArch: cycles simulated: 59000  inst.: 11211456 (ipc=190.0) sim_rate=175179 (inst/sec) elapsed = 0:0:01:04 / Fri Mar  4 03:52:32 2016
GPGPU-Sim PTX: 11300000 instructions simulated : ctaid=(55,0,0) tid=(31,0,0)
GPGPU-Sim PTX: 11400000 instructions simulated : ctaid=(49,0,0) tid=(95,0,0)
GPGPU-Sim uArch: cycles simulated: 60000  inst.: 11394368 (ipc=189.9) sim_rate=175297 (inst/sec) elapsed = 0:0:01:05 / Fri Mar  4 03:52:33 2016
GPGPU-Sim PTX: 11500000 instructions simulated : ctaid=(21,0,0) tid=(63,0,0)
GPGPU-Sim PTX: 11600000 instructions simulated : ctaid=(27,0,0) tid=(31,0,0)
GPGPU-Sim uArch: cycles simulated: 61000  inst.: 11603808 (ipc=190.2) sim_rate=175815 (inst/sec) elapsed = 0:0:01:06 / Fri Mar  4 03:52:34 2016
GPGPU-Sim PTX: 11700000 instructions simulated : ctaid=(33,0,0) tid=(95,0,0)
GPGPU-Sim uArch: cycles simulated: 61500  inst.: 11696992 (ipc=190.2) sim_rate=174581 (inst/sec) elapsed = 0:0:01:07 / Fri Mar  4 03:52:35 2016
GPGPU-Sim PTX: 11800000 instructions simulated : ctaid=(6,0,0) tid=(95,0,0)
GPGPU-Sim PTX: 11900000 instructions simulated : ctaid=(60,0,0) tid=(63,0,0)
GPGPU-Sim uArch: cycles simulated: 62500  inst.: 11871904 (ipc=190.0) sim_rate=174586 (inst/sec) elapsed = 0:0:01:08 / Fri Mar  4 03:52:36 2016
GPGPU-Sim PTX: 12000000 instructions simulated : ctaid=(0,0,0) tid=(95,0,0)
GPGPU-Sim uArch: cycles simulated: 63500  inst.: 12020096 (ipc=189.3) sim_rate=174204 (inst/sec) elapsed = 0:0:01:09 / Fri Mar  4 03:52:37 2016
GPGPU-Sim PTX: 12100000 instructions simulated : ctaid=(2,0,0) tid=(31,0,0)
GPGPU-Sim PTX: 12200000 instructions simulated : ctaid=(36,0,0) tid=(63,0,0)
GPGPU-Sim uArch: cycles simulated: 64500  inst.: 12193440 (ipc=189.0) sim_rate=174192 (inst/sec) elapsed = 0:0:01:10 / Fri Mar  4 03:52:38 2016
GPGPU-Sim PTX: 12300000 instructions simulated : ctaid=(65,0,0) tid=(63,0,0)
GPGPU-Sim uArch: cycles simulated: 65000  inst.: 12303776 (ipc=189.3) sim_rate=173292 (inst/sec) elapsed = 0:0:01:11 / Fri Mar  4 03:52:39 2016
GPGPU-Sim PTX: 12400000 instructions simulated : ctaid=(32,0,0) tid=(31,0,0)
GPGPU-Sim PTX: 12500000 instructions simulated : ctaid=(66,0,0) tid=(95,0,0)
GPGPU-Sim uArch: cycles simulated: 66000  inst.: 12516096 (ipc=189.6) sim_rate=173834 (inst/sec) elapsed = 0:0:01:12 / Fri Mar  4 03:52:40 2016
GPGPU-Sim PTX: 12600000 instructions simulated : ctaid=(13,0,0) tid=(127,0,0)
GPGPU-Sim uArch: cycles simulated: 66500  inst.: 12613536 (ipc=189.7) sim_rate=172788 (inst/sec) elapsed = 0:0:01:13 / Fri Mar  4 03:52:41 2016
GPGPU-Sim PTX: 12700000 instructions simulated : ctaid=(11,0,0) tid=(95,0,0)
GPGPU-Sim PTX: 12800000 instructions simulated : ctaid=(55,0,0) tid=(127,0,0)
GPGPU-Sim uArch: cycles simulated: 67500  inst.: 12795168 (ipc=189.6) sim_rate=172907 (inst/sec) elapsed = 0:0:01:14 / Fri Mar  4 03:52:42 2016
GPGPU-Sim PTX: 12900000 instructions simulated : ctaid=(18,0,0) tid=(127,0,0)
GPGPU-Sim PTX: 13000000 instructions simulated : ctaid=(97,0,0) tid=(31,0,0)
GPGPU-Sim uArch: cycles simulated: 68500  inst.: 12987840 (ipc=189.6) sim_rate=173171 (inst/sec) elapsed = 0:0:01:15 / Fri Mar  4 03:52:43 2016
GPGPU-Sim PTX: 13100000 instructions simulated : ctaid=(74,0,0) tid=(31,0,0)
GPGPU-Sim uArch: cycles simulated: 69000  inst.: 13100736 (ipc=189.9) sim_rate=172378 (inst/sec) elapsed = 0:0:01:16 / Fri Mar  4 03:52:44 2016
GPGPU-Sim PTX: 13200000 instructions simulated : ctaid=(37,0,0) tid=(95,0,0)
GPGPU-Sim uArch: cycles simulated: 70000  inst.: 13268480 (ipc=189.5) sim_rate=172317 (inst/sec) elapsed = 0:0:01:17 / Fri Mar  4 03:52:45 2016
GPGPU-Sim PTX: 13300000 instructions simulated : ctaid=(22,0,0) tid=(127,0,0)
GPGPU-Sim PTX: 13400000 instructions simulated : ctaid=(10,0,0) tid=(95,0,0)
GPGPU-Sim uArch: cycles simulated: 70500  inst.: 13373440 (ipc=189.7) sim_rate=171454 (inst/sec) elapsed = 0:0:01:18 / Fri Mar  4 03:52:46 2016
GPGPU-Sim PTX: 13500000 instructions simulated : ctaid=(12,0,0) tid=(127,0,0)
GPGPU-Sim PTX: 13600000 instructions simulated : ctaid=(39,0,0) tid=(31,0,0)
GPGPU-Sim uArch: cycles simulated: 71500  inst.: 13573696 (ipc=189.8) sim_rate=171818 (inst/sec) elapsed = 0:0:01:19 / Fri Mar  4 03:52:47 2016
GPGPU-Sim PTX: 13700000 instructions simulated : ctaid=(30,0,0) tid=(95,0,0)
GPGPU-Sim uArch: cycles simulated: 72500  inst.: 13757120 (ipc=189.8) sim_rate=171964 (inst/sec) elapsed = 0:0:01:20 / Fri Mar  4 03:52:48 2016
GPGPU-Sim PTX: 13800000 instructions simulated : ctaid=(56,0,0) tid=(95,0,0)
GPGPU-Sim uArch: cycles simulated: 73000  inst.: 13836384 (ipc=189.5) sim_rate=170819 (inst/sec) elapsed = 0:0:01:21 / Fri Mar  4 03:52:49 2016
GPGPU-Sim PTX: 13900000 instructions simulated : ctaid=(69,0,0) tid=(31,0,0)
GPGPU-Sim PTX: 14000000 instructions simulated : ctaid=(43,0,0) tid=(63,0,0)
GPGPU-Sim uArch: cycles simulated: 74000  inst.: 14047552 (ipc=189.8) sim_rate=171311 (inst/sec) elapsed = 0:0:01:22 / Fri Mar  4 03:52:50 2016
GPGPU-Sim PTX: 14100000 instructions simulated : ctaid=(61,0,0) tid=(31,0,0)
GPGPU-Sim PTX: 14200000 instructions simulated : ctaid=(36,0,0) tid=(95,0,0)
GPGPU-Sim uArch: cycles simulated: 75000  inst.: 14238432 (ipc=189.8) sim_rate=171547 (inst/sec) elapsed = 0:0:01:23 / Fri Mar  4 03:52:51 2016
GPGPU-Sim PTX: 14300000 instructions simulated : ctaid=(49,0,0) tid=(31,0,0)
GPGPU-Sim uArch: cycles simulated: 75500  inst.: 14324832 (ipc=189.7) sim_rate=170533 (inst/sec) elapsed = 0:0:01:24 / Fri Mar  4 03:52:52 2016
GPGPU-Sim PTX: 14400000 instructions simulated : ctaid=(17,0,0) tid=(31,0,0)
GPGPU-Sim PTX: 14500000 instructions simulated : ctaid=(8,0,0) tid=(95,0,0)
GPGPU-Sim uArch: cycles simulated: 76500  inst.: 14496480 (ipc=189.5) sim_rate=170546 (inst/sec) elapsed = 0:0:01:25 / Fri Mar  4 03:52:53 2016
GPGPU-Sim PTX: 14600000 instructions simulated : ctaid=(15,0,0) tid=(127,0,0)
GPGPU-Sim PTX: 14700000 instructions simulated : ctaid=(0,0,0) tid=(63,0,0)
GPGPU-Sim uArch: cycles simulated: 77500  inst.: 14671616 (ipc=189.3) sim_rate=170600 (inst/sec) elapsed = 0:0:01:26 / Fri Mar  4 03:52:54 2016
GPGPU-Sim PTX: 14800000 instructions simulated : ctaid=(2,0,0) tid=(63,0,0)
GPGPU-Sim uArch: cycles simulated: 78500  inst.: 14843488 (ipc=189.1) sim_rate=170614 (inst/sec) elapsed = 0:0:01:27 / Fri Mar  4 03:52:55 2016
GPGPU-Sim PTX: 14900000 instructions simulated : ctaid=(77,0,0) tid=(95,0,0)
GPGPU-Sim uArch: cycles simulated: 79000  inst.: 14957888 (ipc=189.3) sim_rate=169976 (inst/sec) elapsed = 0:0:01:28 / Fri Mar  4 03:52:56 2016
GPGPU-Sim PTX: 15000000 instructions simulated : ctaid=(19,0,0) tid=(95,0,0)
GPGPU-Sim PTX: 15100000 instructions simulated : ctaid=(4,0,0) tid=(63,0,0)
GPGPU-Sim uArch: cycles simulated: 80000  inst.: 15133536 (ipc=189.2) sim_rate=170039 (inst/sec) elapsed = 0:0:01:29 / Fri Mar  4 03:52:57 2016
GPGPU-Sim PTX: 15200000 instructions simulated : ctaid=(44,0,0) tid=(63,0,0)
GPGPU-Sim uArch: cycles simulated: 80500  inst.: 15238208 (ipc=189.3) sim_rate=169313 (inst/sec) elapsed = 0:0:01:30 / Fri Mar  4 03:52:58 2016
GPGPU-Sim PTX: 15300000 instructions simulated : ctaid=(18,0,0) tid=(31,0,0)
GPGPU-Sim PTX: 15400000 instructions simulated : ctaid=(16,0,0) tid=(31,0,0)
GPGPU-Sim uArch: cycles simulated: 81500  inst.: 15404352 (ipc=189.0) sim_rate=169278 (inst/sec) elapsed = 0:0:01:31 / Fri Mar  4 03:52:59 2016
GPGPU-Sim PTX: 15500000 instructions simulated : ctaid=(7,0,0) tid=(95,0,0)
GPGPU-Sim PTX: 15600000 instructions simulated : ctaid=(38,0,0) tid=(127,0,0)
GPGPU-Sim uArch: cycles simulated: 82500  inst.: 15603360 (ipc=189.1) sim_rate=169601 (inst/sec) elapsed = 0:0:01:32 / Fri Mar  4 03:53:00 2016
GPGPU-Sim PTX: 15700000 instructions simulated : ctaid=(32,0,0) tid=(95,0,0)
GPGPU-Sim uArch: cycles simulated: 83000  inst.: 15701920 (ipc=189.2) sim_rate=168837 (inst/sec) elapsed = 0:0:01:33 / Fri Mar  4 03:53:01 2016
GPGPU-Sim PTX: 15800000 instructions simulated : ctaid=(74,0,0) tid=(95,0,0)
GPGPU-Sim PTX: 15900000 instructions simulated : ctaid=(26,0,0) tid=(31,0,0)
GPGPU-Sim uArch: cycles simulated: 84000  inst.: 15888640 (ipc=189.2) sim_rate=169028 (inst/sec) elapsed = 0:0:01:34 / Fri Mar  4 03:53:02 2016
GPGPU-Sim PTX: 16000000 instructions simulated : ctaid=(68,0,0) tid=(31,0,0)
GPGPU-Sim PTX: 16100000 instructions simulated : ctaid=(38,0,0) tid=(63,0,0)
GPGPU-Sim uArch: cycles simulated: 85000  inst.: 16079232 (ipc=189.2) sim_rate=169255 (inst/sec) elapsed = 0:0:01:35 / Fri Mar  4 03:53:03 2016
GPGPU-Sim uArch: cycles simulated: 85500  inst.: 16167840 (ipc=189.1) sim_rate=168415 (inst/sec) elapsed = 0:0:01:36 / Fri Mar  4 03:53:04 2016
GPGPU-Sim PTX: 16200000 instructions simulated : ctaid=(27,0,0) tid=(31,0,0)
GPGPU-Sim PTX: 16300000 instructions simulated : ctaid=(8,0,0) tid=(127,0,0)
GPGPU-Sim uArch: cycles simulated: 86500  inst.: 16333376 (ipc=188.8) sim_rate=168385 (inst/sec) elapsed = 0:0:01:37 / Fri Mar  4 03:53:05 2016
GPGPU-Sim PTX: 16400000 instructions simulated : ctaid=(91,0,0) tid=(31,0,0)
GPGPU-Sim PTX: 16500000 instructions simulated : ctaid=(10,0,0) tid=(127,0,0)
GPGPU-Sim uArch: cycles simulated: 87500  inst.: 16529632 (ipc=188.9) sim_rate=168669 (inst/sec) elapsed = 0:0:01:38 / Fri Mar  4 03:53:06 2016
GPGPU-Sim PTX: 16600000 instructions simulated : ctaid=(14,0,0) tid=(31,0,0)
GPGPU-Sim uArch: cycles simulated: 88000  inst.: 16644096 (ipc=189.1) sim_rate=168122 (inst/sec) elapsed = 0:0:01:39 / Fri Mar  4 03:53:07 2016
GPGPU-Sim PTX: 16700000 instructions simulated : ctaid=(33,0,0) tid=(95,0,0)
GPGPU-Sim PTX: 16800000 instructions simulated : ctaid=(37,0,0) tid=(63,0,0)
GPGPU-Sim uArch: cycles simulated: 89000  inst.: 16820736 (ipc=189.0) sim_rate=168207 (inst/sec) elapsed = 0:0:01:40 / Fri Mar  4 03:53:08 2016
GPGPU-Sim PTX: 16900000 instructions simulated : ctaid=(0,0,0) tid=(31,0,0)
GPGPU-Sim PTX: 17000000 instructions simulated : ctaid=(1,0,0) tid=(127,0,0)
GPGPU-Sim uArch: cycles simulated: 90000  inst.: 17029536 (ipc=189.2) sim_rate=168609 (inst/sec) elapsed = 0:0:01:41 / Fri Mar  4 03:53:09 2016
GPGPU-Sim PTX: 17100000 instructions simulated : ctaid=(36,0,0) tid=(31,0,0)
GPGPU-Sim uArch: cycles simulated: 90500  inst.: 17142464 (ipc=189.4) sim_rate=168063 (inst/sec) elapsed = 0:0:01:42 / Fri Mar  4 03:53:10 2016
GPGPU-Sim PTX: 17200000 instructions simulated : ctaid=(62,0,0) tid=(95,0,0)
GPGPU-Sim PTX: 17300000 instructions simulated : ctaid=(6,0,0) tid=(63,0,0)
GPGPU-Sim uArch: cycles simulated: 91500  inst.: 17321152 (ipc=189.3) sim_rate=168166 (inst/sec) elapsed = 0:0:01:43 / Fri Mar  4 03:53:11 2016
GPGPU-Sim PTX: 17400000 instructions simulated : ctaid=(29,0,0) tid=(31,0,0)
GPGPU-Sim uArch: cycles simulated: 92000  inst.: 17408576 (ipc=189.2) sim_rate=167390 (inst/sec) elapsed = 0:0:01:44 / Fri Mar  4 03:53:12 2016
GPGPU-Sim PTX: 17500000 instructions simulated : ctaid=(10,0,0) tid=(63,0,0)
GPGPU-Sim PTX: 17600000 instructions simulated : ctaid=(19,0,0) tid=(63,0,0)
GPGPU-Sim uArch: cycles simulated: 93000  inst.: 17609184 (ipc=189.3) sim_rate=167706 (inst/sec) elapsed = 0:0:01:45 / Fri Mar  4 03:53:13 2016
GPGPU-Sim PTX: 17700000 instructions simulated : ctaid=(8,0,0) tid=(63,0,0)
GPGPU-Sim PTX: 17800000 instructions simulated : ctaid=(51,0,0) tid=(95,0,0)
GPGPU-Sim uArch: cycles simulated: 94000  inst.: 17803072 (ipc=189.4) sim_rate=167953 (inst/sec) elapsed = 0:0:01:46 / Fri Mar  4 03:53:14 2016
GPGPU-Sim PTX: 17900000 instructions simulated : ctaid=(36,0,0) tid=(31,0,0)
GPGPU-Sim uArch: cycles simulated: 94500  inst.: 17897504 (ipc=189.4) sim_rate=167266 (inst/sec) elapsed = 0:0:01:47 / Fri Mar  4 03:53:15 2016
GPGPU-Sim PTX: 18000000 instructions simulated : ctaid=(66,0,0) tid=(95,0,0)
GPGPU-Sim PTX: 18100000 instructions simulated : ctaid=(0,0,0) tid=(95,0,0)
GPGPU-Sim uArch: cycles simulated: 95500  inst.: 18068928 (ipc=189.2) sim_rate=167304 (inst/sec) elapsed = 0:0:01:48 / Fri Mar  4 03:53:16 2016
GPGPU-Sim PTX: 18200000 instructions simulated : ctaid=(87,0,0) tid=(31,0,0)
GPGPU-Sim uArch: cycles simulated: 96500  inst.: 18258272 (ipc=189.2) sim_rate=167507 (inst/sec) elapsed = 0:0:01:49 / Fri Mar  4 03:53:17 2016
GPGPU-Sim PTX: 18300000 instructions simulated : ctaid=(7,0,0) tid=(95,0,0)
GPGPU-Sim PTX: 18400000 instructions simulated : ctaid=(88,0,0) tid=(127,0,0)
GPGPU-Sim uArch: cycles simulated: 97000  inst.: 18369184 (ipc=189.4) sim_rate=166992 (inst/sec) elapsed = 0:0:01:50 / Fri Mar  4 03:53:18 2016
GPGPU-Sim PTX: 18500000 instructions simulated : ctaid=(2,0,0) tid=(63,0,0)
GPGPU-Sim uArch: cycles simulated: 98000  inst.: 18556032 (ipc=189.3) sim_rate=167171 (inst/sec) elapsed = 0:0:01:51 / Fri Mar  4 03:53:19 2016
GPGPU-Sim PTX: 18600000 instructions simulated : ctaid=(11,0,0) tid=(95,0,0)
GPGPU-Sim PTX: 18700000 instructions simulated : ctaid=(28,0,0) tid=(31,0,0)
GPGPU-Sim uArch: cycles simulated: 99000  inst.: 18734432 (ipc=189.2) sim_rate=167271 (inst/sec) elapsed = 0:0:01:52 / Fri Mar  4 03:53:20 2016
GPGPU-Sim PTX: 18800000 instructions simulated : ctaid=(58,0,0) tid=(31,0,0)
GPGPU-Sim uArch: cycles simulated: 99500  inst.: 18830944 (ipc=189.3) sim_rate=166645 (inst/sec) elapsed = 0:0:01:53 / Fri Mar  4 03:53:21 2016
GPGPU-Sim PTX: 18900000 instructions simulated : ctaid=(5,0,0) tid=(63,0,0)
GPGPU-Sim PTX: 19000000 instructions simulated : ctaid=(1,0,0) tid=(31,0,0)
GPGPU-Sim uArch: cycles simulated: 100500  inst.: 19026592 (ipc=189.3) sim_rate=166899 (inst/sec) elapsed = 0:0:01:54 / Fri Mar  4 03:53:22 2016
GPGPU-Sim PTX: 19100000 instructions simulated : ctaid=(4,0,0) tid=(63,0,0)
GPGPU-Sim uArch: cycles simulated: 101000  inst.: 19140736 (ipc=189.5) sim_rate=166441 (inst/sec) elapsed = 0:0:01:55 / Fri Mar  4 03:53:23 2016
GPGPU-Sim PTX: 19200000 instructions simulated : ctaid=(43,0,0) tid=(95,0,0)
GPGPU-Sim PTX: 19300000 instructions simulated : ctaid=(18,0,0) tid=(63,0,0)
GPGPU-Sim uArch: cycles simulated: 102000  inst.: 19347488 (ipc=189.7) sim_rate=166788 (inst/sec) elapsed = 0:0:01:56 / Fri Mar  4 03:53:24 2016
GPGPU-Sim PTX: 19400000 instructions simulated : ctaid=(54,0,0) tid=(63,0,0)
GPGPU-Sim uArch: cycles simulated: 102500  inst.: 19446688 (ipc=189.7) sim_rate=166211 (inst/sec) elapsed = 0:0:01:57 / Fri Mar  4 03:53:25 2016
GPGPU-Sim PTX: 19500000 instructions simulated : ctaid=(84,0,0) tid=(95,0,0)
GPGPU-Sim PTX: 19600000 instructions simulated : ctaid=(33,0,0) tid=(127,0,0)
GPGPU-Sim uArch: cycles simulated: 103500  inst.: 19612576 (ipc=189.5) sim_rate=166208 (inst/sec) elapsed = 0:0:01:58 / Fri Mar  4 03:53:26 2016
GPGPU-Sim PTX: 19700000 instructions simulated : ctaid=(2,0,0) tid=(31,0,0)
GPGPU-Sim PTX: 19800000 instructions simulated : ctaid=(77,0,0) tid=(95,0,0)
GPGPU-Sim uArch: cycles simulated: 104500  inst.: 19787200 (ipc=189.4) sim_rate=166278 (inst/sec) elapsed = 0:0:01:59 / Fri Mar  4 03:53:27 2016
GPGPU-Sim PTX: 19900000 instructions simulated : ctaid=(11,0,0) tid=(127,0,0)
GPGPU-Sim PTX: 20000000 instructions simulated : ctaid=(40,0,0) tid=(95,0,0)
GPGPU-Sim uArch: cycles simulated: 105500  inst.: 19982944 (ipc=189.4) sim_rate=166524 (inst/sec) elapsed = 0:0:02:00 / Fri Mar  4 03:53:28 2016
GPGPU-Sim PTX: 20100000 instructions simulated : ctaid=(21,0,0) tid=(31,0,0)
GPGPU-Sim uArch: cycles simulated: 106000  inst.: 20082272 (ipc=189.5) sim_rate=165969 (inst/sec) elapsed = 0:0:02:01 / Fri Mar  4 03:53:29 2016
GPGPU-Sim PTX: 20200000 instructions simulated : ctaid=(24,0,0) tid=(63,0,0)
GPGPU-Sim PTX: 20300000 instructions simulated : ctaid=(28,0,0) tid=(31,0,0)
GPGPU-Sim uArch: cycles simulated: 107000  inst.: 20284096 (ipc=189.6) sim_rate=166263 (inst/sec) elapsed = 0:0:02:02 / Fri Mar  4 03:53:30 2016
GPGPU-Sim PTX: 20400000 instructions simulated : ctaid=(33,0,0) tid=(127,0,0)
GPGPU-Sim uArch: cycles simulated: 107500  inst.: 20391552 (ipc=189.7) sim_rate=165784 (inst/sec) elapsed = 0:0:02:03 / Fri Mar  4 03:53:31 2016
GPGPU-Sim PTX: 20500000 instructions simulated : ctaid=(52,0,0) tid=(63,0,0)
GPGPU-Sim uArch: cycles simulated: 108500  inst.: 20559040 (ipc=189.5) sim_rate=165798 (inst/sec) elapsed = 0:0:02:04 / Fri Mar  4 03:53:32 2016
GPGPU-Sim PTX: 20600000 instructions simulated : ctaid=(15,0,0) tid=(127,0,0)
GPGPU-Sim PTX: 20700000 instructions simulated : ctaid=(48,0,0) tid=(95,0,0)
GPGPU-Sim uArch: cycles simulated: 109000  inst.: 20674880 (ipc=189.7) sim_rate=165399 (inst/sec) elapsed = 0:0:02:05 / Fri Mar  4 03:53:33 2016
GPGPU-Sim PTX: 20800000 instructions simulated : ctaid=(5,0,0) tid=(31,0,0)
GPGPU-Sim uArch: cycles simulated: 110000  inst.: 20821600 (ipc=189.3) sim_rate=165250 (inst/sec) elapsed = 0:0:02:06 / Fri Mar  4 03:53:34 2016
GPGPU-Sim PTX: 20900000 instructions simulated : ctaid=(22,0,0) tid=(63,0,0)
GPGPU-Sim PTX: 21000000 instructions simulated : ctaid=(25,0,0) tid=(63,0,0)
GPGPU-Sim uArch: cycles simulated: 111000  inst.: 21038592 (ipc=189.5) sim_rate=165658 (inst/sec) elapsed = 0:0:02:07 / Fri Mar  4 03:53:35 2016
GPGPU-Sim PTX: 21100000 instructions simulated : ctaid=(50,0,0) tid=(95,0,0)
GPGPU-Sim uArch: cycles simulated: 111500  inst.: 21133696 (ipc=189.5) sim_rate=165107 (inst/sec) elapsed = 0:0:02:08 / Fri Mar  4 03:53:36 2016
GPGPU-Sim PTX: 21200000 instructions simulated : ctaid=(86,0,0) tid=(31,0,0)
GPGPU-Sim PTX: 21300000 instructions simulated : ctaid=(10,0,0) tid=(127,0,0)
GPGPU-Sim uArch: cycles simulated: 112500  inst.: 21313504 (ipc=189.5) sim_rate=165220 (inst/sec) elapsed = 0:0:02:09 / Fri Mar  4 03:53:37 2016
GPGPU-Sim PTX: 21400000 instructions simulated : ctaid=(2,0,0) tid=(31,0,0)
GPGPU-Sim PTX: 21500000 instructions simulated : ctaid=(6,0,0) tid=(31,0,0)
GPGPU-Sim uArch: cycles simulated: 113500  inst.: 21508672 (ipc=189.5) sim_rate=165451 (inst/sec) elapsed = 0:0:02:10 / Fri Mar  4 03:53:38 2016
GPGPU-Sim PTX: 21600000 instructions simulated : ctaid=(57,0,0) tid=(95,0,0)
GPGPU-Sim uArch: cycles simulated: 114000  inst.: 21599904 (ipc=189.5) sim_rate=164884 (inst/sec) elapsed = 0:0:02:11 / Fri Mar  4 03:53:39 2016
GPGPU-Sim PTX: 21700000 instructions simulated : ctaid=(26,0,0) tid=(95,0,0)
GPGPU-Sim PTX: 21800000 instructions simulated : ctaid=(7,0,0) tid=(95,0,0)
GPGPU-Sim uArch: cycles simulated: 115000  inst.: 21801888 (ipc=189.6) sim_rate=165165 (inst/sec) elapsed = 0:0:02:12 / Fri Mar  4 03:53:40 2016
GPGPU-Sim PTX: 21900000 instructions simulated : ctaid=(44,0,0) tid=(31,0,0)
GPGPU-Sim PTX: 22000000 instructions simulated : ctaid=(10,0,0) tid=(31,0,0)
GPGPU-Sim uArch: cycles simulated: 116000  inst.: 22004576 (ipc=189.7) sim_rate=165447 (inst/sec) elapsed = 0:0:02:13 / Fri Mar  4 03:53:41 2016
GPGPU-Sim PTX: 22100000 instructions simulated : ctaid=(10,0,0) tid=(127,0,0)
GPGPU-Sim PTX: 22200000 instructions simulated : ctaid=(8,0,0) tid=(31,0,0)
GPGPU-Sim uArch: cycles simulated: 117000  inst.: 22215648 (ipc=189.9) sim_rate=165788 (inst/sec) elapsed = 0:0:02:14 / Fri Mar  4 03:53:42 2016
GPGPU-Sim PTX: 22300000 instructions simulated : ctaid=(57,0,0) tid=(31,0,0)
GPGPU-Sim PTX: 22400000 instructions simulated : ctaid=(49,0,0) tid=(63,0,0)
GPGPU-Sim uArch: cycles simulated: 118000  inst.: 22394240 (ipc=189.8) sim_rate=165883 (inst/sec) elapsed = 0:0:02:15 / Fri Mar  4 03:53:43 2016
GPGPU-Sim PTX: 22500000 instructions simulated : ctaid=(88,0,0) tid=(95,0,0)
GPGPU-Sim uArch: cycles simulated: 118500  inst.: 22480384 (ipc=189.7) sim_rate=165296 (inst/sec) elapsed = 0:0:02:16 / Fri Mar  4 03:53:44 2016
GPGPU-Sim PTX: 22600000 instructions simulated : ctaid=(35,0,0) tid=(95,0,0)
GPGPU-Sim PTX: 22700000 instructions simulated : ctaid=(17,0,0) tid=(63,0,0)
GPGPU-Sim uArch: cycles simulated: 119500  inst.: 22682656 (ipc=189.8) sim_rate=165566 (inst/sec) elapsed = 0:0:02:17 / Fri Mar  4 03:53:45 2016
GPGPU-Sim PTX: 22800000 instructions simulated : ctaid=(68,0,0) tid=(95,0,0)
GPGPU-Sim uArch: cycles simulated: 120500  inst.: 22866016 (ipc=189.8) sim_rate=165695 (inst/sec) elapsed = 0:0:02:18 / Fri Mar  4 03:53:46 2016
GPGPU-Sim PTX: 22900000 instructions simulated : ctaid=(59,0,0) tid=(95,0,0)
GPGPU-Sim PTX: 23000000 instructions simulated : ctaid=(37,0,0) tid=(31,0,0)
GPGPU-Sim uArch: cycles simulated: 121500  inst.: 23036544 (ipc=189.6) sim_rate=165730 (inst/sec) elapsed = 0:0:02:19 / Fri Mar  4 03:53:47 2016
GPGPU-Sim PTX: 23100000 instructions simulated : ctaid=(7,0,0) tid=(31,0,0)
GPGPU-Sim PTX: 23200000 instructions simulated : ctaid=(33,0,0) tid=(127,0,0)
GPGPU-Sim uArch: cycles simulated: 122500  inst.: 23211360 (ipc=189.5) sim_rate=165795 (inst/sec) elapsed = 0:0:02:20 / Fri Mar  4 03:53:48 2016
GPGPU-Sim PTX: 23300000 instructions simulated : ctaid=(71,0,0) tid=(31,0,0)
GPGPU-Sim PTX: 23400000 instructions simulated : ctaid=(23,0,0) tid=(31,0,0)
GPGPU-Sim uArch: cycles simulated: 123500  inst.: 23396384 (ipc=189.4) sim_rate=165931 (inst/sec) elapsed = 0:0:02:21 / Fri Mar  4 03:53:49 2016
GPGPU-Sim PTX: 23500000 instructions simulated : ctaid=(23,0,0) tid=(31,0,0)
GPGPU-Sim uArch: cycles simulated: 124000  inst.: 23497536 (ipc=189.5) sim_rate=165475 (inst/sec) elapsed = 0:0:02:22 / Fri Mar  4 03:53:50 2016
GPGPU-Sim PTX: 23600000 instructions simulated : ctaid=(21,0,0) tid=(31,0,0)
GPGPU-Sim PTX: 23700000 instructions simulated : ctaid=(49,0,0) tid=(63,0,0)
GPGPU-Sim uArch: cycles simulated: 125000  inst.: 23688672 (ipc=189.5) sim_rate=165655 (inst/sec) elapsed = 0:0:02:23 / Fri Mar  4 03:53:51 2016
GPGPU-Sim PTX: 23800000 instructions simulated : ctaid=(2,0,0) tid=(127,0,0)
GPGPU-Sim PTX: 23900000 instructions simulated : ctaid=(15,0,0) tid=(63,0,0)
GPGPU-Sim uArch: cycles simulated: 126000  inst.: 23879328 (ipc=189.5) sim_rate=165828 (inst/sec) elapsed = 0:0:02:24 / Fri Mar  4 03:53:52 2016
GPGPU-Sim PTX: 24000000 instructions simulated : ctaid=(45,0,0) tid=(95,0,0)
GPGPU-Sim PTX: 24100000 instructions simulated : ctaid=(28,0,0) tid=(31,0,0)
GPGPU-Sim uArch: cycles simulated: 127000  inst.: 24078880 (ipc=189.6) sim_rate=166061 (inst/sec) elapsed = 0:0:02:25 / Fri Mar  4 03:53:53 2016
GPGPU-Sim PTX: 24200000 instructions simulated : ctaid=(35,0,0) tid=(31,0,0)
GPGPU-Sim uArch: cycles simulated: 128000  inst.: 24257472 (ipc=189.5) sim_rate=166147 (inst/sec) elapsed = 0:0:02:26 / Fri Mar  4 03:53:54 2016
GPGPU-Sim PTX: 24300000 instructions simulated : ctaid=(56,0,0) tid=(95,0,0)
GPGPU-Sim uArch: cycles simulated: 128500  inst.: 24362304 (ipc=189.6) sim_rate=165729 (inst/sec) elapsed = 0:0:02:27 / Fri Mar  4 03:53:55 2016
GPGPU-Sim PTX: 24400000 instructions simulated : ctaid=(38,0,0) tid=(95,0,0)
GPGPU-Sim PTX: 24500000 instructions simulated : ctaid=(19,0,0) tid=(95,0,0)
GPGPU-Sim uArch: cycles simulated: 129500  inst.: 24563584 (ipc=189.7) sim_rate=165970 (inst/sec) elapsed = 0:0:02:28 / Fri Mar  4 03:53:56 2016
GPGPU-Sim PTX: 24600000 instructions simulated : ctaid=(104,0,0) tid=(31,0,0)
GPGPU-Sim PTX: 24700000 instructions simulated : ctaid=(70,0,0) tid=(31,0,0)
GPGPU-Sim uArch: cycles simulated: 130500  inst.: 24742432 (ipc=189.6) sim_rate=166056 (inst/sec) elapsed = 0:0:02:29 / Fri Mar  4 03:53:57 2016
GPGPU-Sim PTX: 24800000 instructions simulated : ctaid=(55,0,0) tid=(127,0,0)
GPGPU-Sim PTX: 24900000 instructions simulated : ctaid=(34,0,0) tid=(95,0,0)
GPGPU-Sim uArch: cycles simulated: 131500  inst.: 24931296 (ipc=189.6) sim_rate=166208 (inst/sec) elapsed = 0:0:02:30 / Fri Mar  4 03:53:58 2016
GPGPU-Sim PTX: 25000000 instructions simulated : ctaid=(52,0,0) tid=(31,0,0)
GPGPU-Sim PTX: 25100000 instructions simulated : ctaid=(44,0,0) tid=(63,0,0)
GPGPU-Sim uArch: cycles simulated: 132500  inst.: 25097728 (ipc=189.4) sim_rate=166210 (inst/sec) elapsed = 0:0:02:31 / Fri Mar  4 03:53:59 2016
GPGPU-Sim PTX: 25200000 instructions simulated : ctaid=(46,0,0) tid=(95,0,0)
GPGPU-Sim PTX: 25300000 instructions simulated : ctaid=(62,0,0) tid=(31,0,0)
GPGPU-Sim uArch: cycles simulated: 133500  inst.: 25313600 (ipc=189.6) sim_rate=166536 (inst/sec) elapsed = 0:0:02:32 / Fri Mar  4 03:54:00 2016
GPGPU-Sim PTX: 25400000 instructions simulated : ctaid=(4,0,0) tid=(31,0,0)
GPGPU-Sim uArch: cycles simulated: 134000  inst.: 25405984 (ipc=189.6) sim_rate=166052 (inst/sec) elapsed = 0:0:02:33 / Fri Mar  4 03:54:01 2016
GPGPU-Sim PTX: 25500000 instructions simulated : ctaid=(23,0,0) tid=(31,0,0)
GPGPU-Sim PTX: 25600000 instructions simulated : ctaid=(58,0,0) tid=(63,0,0)
GPGPU-Sim uArch: cycles simulated: 135000  inst.: 25589920 (ipc=189.6) sim_rate=166168 (inst/sec) elapsed = 0:0:02:34 / Fri Mar  4 03:54:02 2016
GPGPU-Sim PTX: 25700000 instructions simulated : ctaid=(90,0,0) tid=(95,0,0)
GPGPU-Sim PTX: 25800000 instructions simulated : ctaid=(0,0,0) tid=(127,0,0)
GPGPU-Sim uArch: cycles simulated: 136000  inst.: 25779136 (ipc=189.6) sim_rate=166317 (inst/sec) elapsed = 0:0:02:35 / Fri Mar  4 03:54:03 2016
GPGPU-Sim PTX: 25900000 instructions simulated : ctaid=(66,0,0) tid=(63,0,0)
GPGPU-Sim uArch: cycles simulated: 137000  inst.: 25946912 (ipc=189.4) sim_rate=166326 (inst/sec) elapsed = 0:0:02:36 / Fri Mar  4 03:54:04 2016
GPGPU-Sim PTX: 26000000 instructions simulated : ctaid=(91,0,0) tid=(31,0,0)
GPGPU-Sim PTX: 26100000 instructions simulated : ctaid=(15,0,0) tid=(31,0,0)
GPGPU-Sim uArch: cycles simulated: 138000  inst.: 26117376 (ipc=189.3) sim_rate=166352 (inst/sec) elapsed = 0:0:02:37 / Fri Mar  4 03:54:05 2016
GPGPU-Sim PTX: 26200000 instructions simulated : ctaid=(6,0,0) tid=(31,0,0)
GPGPU-Sim PTX: 26300000 instructions simulated : ctaid=(49,0,0) tid=(31,0,0)
GPGPU-Sim uArch: cycles simulated: 139000  inst.: 26290624 (ipc=189.1) sim_rate=166396 (inst/sec) elapsed = 0:0:02:38 / Fri Mar  4 03:54:06 2016
GPGPU-Sim PTX: 26400000 instructions simulated : ctaid=(97,0,0) tid=(95,0,0)
GPGPU-Sim PTX: 26500000 instructions simulated : ctaid=(47,0,0) tid=(95,0,0)
GPGPU-Sim uArch: cycles simulated: 140000  inst.: 26473248 (ipc=189.1) sim_rate=166498 (inst/sec) elapsed = 0:0:02:39 / Fri Mar  4 03:54:07 2016
GPGPU-Sim uArch: cycles simulated: 140500  inst.: 26558144 (ipc=189.0) sim_rate=165988 (inst/sec) elapsed = 0:0:02:40 / Fri Mar  4 03:54:08 2016
GPGPU-Sim PTX: 26600000 instructions simulated : ctaid=(72,0,0) tid=(31,0,0)
GPGPU-Sim PTX: 26700000 instructions simulated : ctaid=(41,0,0) tid=(63,0,0)
GPGPU-Sim uArch: cycles simulated: 141500  inst.: 26747776 (ipc=189.0) sim_rate=166135 (inst/sec) elapsed = 0:0:02:41 / Fri Mar  4 03:54:09 2016
GPGPU-Sim PTX: 26800000 instructions simulated : ctaid=(25,0,0) tid=(31,0,0)
GPGPU-Sim PTX: 26900000 instructions simulated : ctaid=(34,0,0) tid=(31,0,0)
GPGPU-Sim uArch: cycles simulated: 142500  inst.: 26945760 (ipc=189.1) sim_rate=166331 (inst/sec) elapsed = 0:0:02:42 / Fri Mar  4 03:54:10 2016
GPGPU-Sim PTX: 27000000 instructions simulated : ctaid=(72,0,0) tid=(95,0,0)
GPGPU-Sim PTX: 27100000 instructions simulated : ctaid=(19,0,0) tid=(63,0,0)
GPGPU-Sim uArch: cycles simulated: 143500  inst.: 27122432 (ipc=189.0) sim_rate=166395 (inst/sec) elapsed = 0:0:02:43 / Fri Mar  4 03:54:11 2016
GPGPU-Sim PTX: 27200000 instructions simulated : ctaid=(50,0,0) tid=(31,0,0)
GPGPU-Sim PTX: 27300000 instructions simulated : ctaid=(67,0,0) tid=(31,0,0)
GPGPU-Sim uArch: cycles simulated: 144500  inst.: 27272800 (ipc=188.7) sim_rate=166297 (inst/sec) elapsed = 0:0:02:44 / Fri Mar  4 03:54:12 2016
GPGPU-Sim PTX: 27400000 instructions simulated : ctaid=(35,0,0) tid=(127,0,0)
GPGPU-Sim uArch: cycles simulated: 145500  inst.: 27445728 (ipc=188.6) sim_rate=166337 (inst/sec) elapsed = 0:0:02:45 / Fri Mar  4 03:54:13 2016
GPGPU-Sim PTX: 27500000 instructions simulated : ctaid=(8,0,0) tid=(63,0,0)
GPGPU-Sim PTX: 27600000 instructions simulated : ctaid=(81,0,0) tid=(31,0,0)
GPGPU-Sim uArch: cycles simulated: 146500  inst.: 27610560 (ipc=188.5) sim_rate=166328 (inst/sec) elapsed = 0:0:02:46 / Fri Mar  4 03:54:14 2016
GPGPU-Sim PTX: 27700000 instructions simulated : ctaid=(43,0,0) tid=(127,0,0)
GPGPU-Sim uArch: cycles simulated: 147000  inst.: 27712800 (ipc=188.5) sim_rate=165944 (inst/sec) elapsed = 0:0:02:47 / Fri Mar  4 03:54:15 2016
GPGPU-Sim PTX: 27800000 instructions simulated : ctaid=(38,0,0) tid=(63,0,0)
GPGPU-Sim PTX: 27900000 instructions simulated : ctaid=(53,0,0) tid=(31,0,0)
GPGPU-Sim uArch: cycles simulated: 148000  inst.: 27875264 (ipc=188.3) sim_rate=165924 (inst/sec) elapsed = 0:0:02:48 / Fri Mar  4 03:54:16 2016
GPGPU-Sim PTX: 28000000 instructions simulated : ctaid=(29,0,0) tid=(127,0,0)
GPGPU-Sim PTX: 28100000 instructions simulated : ctaid=(45,0,0) tid=(63,0,0)
GPGPU-Sim uArch: cycles simulated: 149000  inst.: 28079232 (ipc=188.5) sim_rate=166149 (inst/sec) elapsed = 0:0:02:49 / Fri Mar  4 03:54:17 2016
GPGPU-Sim PTX: 28200000 instructions simulated : ctaid=(10,0,0) tid=(63,0,0)
GPGPU-Sim uArch: cycles simulated: 150000  inst.: 28241024 (ipc=188.3) sim_rate=166123 (inst/sec) elapsed = 0:0:02:50 / Fri Mar  4 03:54:18 2016
GPGPU-Sim PTX: 28300000 instructions simulated : ctaid=(63,0,0) tid=(95,0,0)
GPGPU-Sim PTX: 28400000 instructions simulated : ctaid=(64,0,0) tid=(31,0,0)
GPGPU-Sim uArch: cycles simulated: 151000  inst.: 28370240 (ipc=187.9) sim_rate=165907 (inst/sec) elapsed = 0:0:02:51 / Fri Mar  4 03:54:19 2016
GPGPU-Sim PTX: 28500000 instructions simulated : ctaid=(56,0,0) tid=(127,0,0)
GPGPU-Sim uArch: cycles simulated: 152000  inst.: 28547136 (ipc=187.8) sim_rate=165971 (inst/sec) elapsed = 0:0:02:52 / Fri Mar  4 03:54:20 2016
GPGPU-Sim PTX: 28600000 instructions simulated : ctaid=(88,0,0) tid=(95,0,0)
GPGPU-Sim PTX: 28700000 instructions simulated : ctaid=(68,0,0) tid=(63,0,0)
GPGPU-Sim uArch: cycles simulated: 153000  inst.: 28694944 (ipc=187.5) sim_rate=165866 (inst/sec) elapsed = 0:0:02:53 / Fri Mar  4 03:54:21 2016
GPGPU-Sim PTX: 28800000 instructions simulated : ctaid=(29,0,0) tid=(127,0,0)
GPGPU-Sim uArch: cycles simulated: 154000  inst.: 28856192 (ipc=187.4) sim_rate=165840 (inst/sec) elapsed = 0:0:02:54 / Fri Mar  4 03:54:22 2016
GPGPU-Sim PTX: 28900000 instructions simulated : ctaid=(46,0,0) tid=(31,0,0)
GPGPU-Sim PTX: 29000000 instructions simulated : ctaid=(102,0,0) tid=(95,0,0)
GPGPU-Sim uArch: cycles simulated: 155000  inst.: 29039488 (ipc=187.4) sim_rate=165939 (inst/sec) elapsed = 0:0:02:55 / Fri Mar  4 03:54:23 2016
GPGPU-Sim PTX: 29100000 instructions simulated : ctaid=(18,0,0) tid=(127,0,0)
GPGPU-Sim PTX: 29200000 instructions simulated : ctaid=(83,0,0) tid=(95,0,0)
GPGPU-Sim uArch: cycles simulated: 156000  inst.: 29180640 (ipc=187.1) sim_rate=165799 (inst/sec) elapsed = 0:0:02:56 / Fri Mar  4 03:54:24 2016
GPGPU-Sim PTX: 29300000 instructions simulated : ctaid=(36,0,0) tid=(63,0,0)
GPGPU-Sim PTX: 29400000 instructions simulated : ctaid=(10,0,0) tid=(63,0,0)
GPGPU-Sim uArch: cycles simulated: 157000  inst.: 29393504 (ipc=187.2) sim_rate=166064 (inst/sec) elapsed = 0:0:02:57 / Fri Mar  4 03:54:25 2016
GPGPU-Sim PTX: 29500000 instructions simulated : ctaid=(99,0,0) tid=(95,0,0)
GPGPU-Sim PTX: 29600000 instructions simulated : ctaid=(11,0,0) tid=(63,0,0)
GPGPU-Sim uArch: cycles simulated: 158000  inst.: 29594016 (ipc=187.3) sim_rate=166258 (inst/sec) elapsed = 0:0:02:58 / Fri Mar  4 03:54:26 2016
GPGPU-Sim PTX: 29700000 instructions simulated : ctaid=(74,0,0) tid=(31,0,0)
GPGPU-Sim uArch: cycles simulated: 159000  inst.: 29749088 (ipc=187.1) sim_rate=166196 (inst/sec) elapsed = 0:0:02:59 / Fri Mar  4 03:54:27 2016
GPGPU-Sim PTX: 29800000 instructions simulated : ctaid=(70,0,0) tid=(63,0,0)
GPGPU-Sim uArch: cycles simulated: 159500  inst.: 29834496 (ipc=187.1) sim_rate=165747 (inst/sec) elapsed = 0:0:03:00 / Fri Mar  4 03:54:28 2016
GPGPU-Sim PTX: 29900000 instructions simulated : ctaid=(69,0,0) tid=(95,0,0)
GPGPU-Sim PTX: 30000000 instructions simulated : ctaid=(62,0,0) tid=(31,0,0)
GPGPU-Sim uArch: cycles simulated: 160500  inst.: 30015072 (ipc=187.0) sim_rate=165829 (inst/sec) elapsed = 0:0:03:01 / Fri Mar  4 03:54:29 2016
GPGPU-Sim PTX: 30100000 instructions simulated : ctaid=(19,0,0) tid=(63,0,0)
GPGPU-Sim PTX: 30200000 instructions simulated : ctaid=(94,0,0) tid=(31,0,0)
GPGPU-Sim uArch: cycles simulated: 161500  inst.: 30175360 (ipc=186.8) sim_rate=165798 (inst/sec) elapsed = 0:0:03:02 / Fri Mar  4 03:54:30 2016
GPGPU-Sim uArch: Shader 7 finished CTA #0 (161777,0), 7 CTAs running
GPGPU-Sim uArch: core:  7, cta: 0 initialized @(161778,0)
GPGPU-Sim PTX: 30300000 instructions simulated : ctaid=(22,0,0) tid=(63,0,0)
GPGPU-Sim uArch: cycles simulated: 162500  inst.: 30327072 (ipc=186.6) sim_rate=165721 (inst/sec) elapsed = 0:0:03:03 / Fri Mar  4 03:54:31 2016
GPGPU-Sim PTX: 30400000 instructions simulated : ctaid=(56,0,0) tid=(63,0,0)
GPGPU-Sim PTX: 30500000 instructions simulated : ctaid=(56,0,0) tid=(63,0,0)
GPGPU-Sim uArch: cycles simulated: 163500  inst.: 30504416 (ipc=186.6) sim_rate=165784 (inst/sec) elapsed = 0:0:03:04 / Fri Mar  4 03:54:32 2016
GPGPU-Sim uArch: Shader 8 finished CTA #0 (163613,0), 7 CTAs running
GPGPU-Sim uArch: core:  8, cta: 0 initialized @(163614,0)
GPGPU-Sim PTX: 30600000 instructions simulated : ctaid=(52,0,0) tid=(63,0,0)
GPGPU-Sim PTX: 30700000 instructions simulated : ctaid=(107,0,0) tid=(95,0,0)
GPGPU-Sim uArch: cycles simulated: 164500  inst.: 30688544 (ipc=186.6) sim_rate=165884 (inst/sec) elapsed = 0:0:03:05 / Fri Mar  4 03:54:33 2016
GPGPU-Sim PTX: 30800000 instructions simulated : ctaid=(45,0,0) tid=(127,0,0)
GPGPU-Sim PTX: 30900000 instructions simulated : ctaid=(81,0,0) tid=(63,0,0)
GPGPU-Sim uArch: cycles simulated: 165500  inst.: 30902368 (ipc=186.7) sim_rate=166141 (inst/sec) elapsed = 0:0:03:06 / Fri Mar  4 03:54:34 2016
GPGPU-Sim uArch: Shader 12 finished CTA #0 (165585,0), 7 CTAs running
GPGPU-Sim uArch: core: 12, cta: 0 initialized @(165586,0)
GPGPU-Sim uArch: Shader 1 finished CTA #0 (165637,0), 7 CTAs running
GPGPU-Sim uArch: core:  1, cta: 0 initialized @(165638,0)
GPGPU-Sim PTX: 31000000 instructions simulated : ctaid=(114,0,0) tid=(95,0,0)
GPGPU-Sim uArch: Shader 14 finished CTA #0 (165993,0), 7 CTAs running
GPGPU-Sim uArch: core: 14, cta: 0 initialized @(165994,0)
GPGPU-Sim PTX: 31100000 instructions simulated : ctaid=(63,0,0) tid=(95,0,0)
GPGPU-Sim uArch: cycles simulated: 166500  inst.: 31090496 (ipc=186.7) sim_rate=166259 (inst/sec) elapsed = 0:0:03:07 / Fri Mar  4 03:54:35 2016
GPGPU-Sim PTX: 31200000 instructions simulated : ctaid=(32,0,0) tid=(63,0,0)
GPGPU-Sim uArch: Shader 2 finished CTA #0 (167106,0), 7 CTAs running
GPGPU-Sim uArch: core:  2, cta: 0 initialized @(167107,0)
GPGPU-Sim uArch: Shader 13 finished CTA #0 (167311,0), 7 CTAs running
GPGPU-Sim uArch: core: 13, cta: 0 initialized @(167312,0)
GPGPU-Sim PTX: 31300000 instructions simulated : ctaid=(103,0,0) tid=(31,0,0)
GPGPU-Sim uArch: cycles simulated: 167500  inst.: 31277056 (ipc=186.7) sim_rate=166367 (inst/sec) elapsed = 0:0:03:08 / Fri Mar  4 03:54:36 2016
GPGPU-Sim PTX: 31400000 instructions simulated : ctaid=(62,0,0) tid=(31,0,0)
GPGPU-Sim uArch: cycles simulated: 168500  inst.: 31466368 (ipc=186.7) sim_rate=166488 (inst/sec) elapsed = 0:0:03:09 / Fri Mar  4 03:54:37 2016
GPGPU-Sim PTX: 31500000 instructions simulated : ctaid=(77,0,0) tid=(63,0,0)
GPGPU-Sim uArch: Shader 6 finished CTA #0 (168872,0), 7 CTAs running
GPGPU-Sim uArch: core:  6, cta: 0 initialized @(168873,0)
GPGPU-Sim PTX: 31600000 instructions simulated : ctaid=(51,0,0) tid=(63,0,0)
GPGPU-Sim uArch: Shader 10 finished CTA #0 (168969,0), 7 CTAs running
GPGPU-Sim uArch: core: 10, cta: 0 initialized @(168970,0)
GPGPU-Sim uArch: cycles simulated: 169000  inst.: 31574656 (ipc=186.8) sim_rate=166182 (inst/sec) elapsed = 0:0:03:10 / Fri Mar  4 03:54:38 2016
GPGPU-Sim uArch: Shader 11 finished CTA #0 (169343,0), 7 CTAs running
GPGPU-Sim uArch: core: 11, cta: 0 initialized @(169344,0)
GPGPU-Sim PTX: 31700000 instructions simulated : ctaid=(101,0,0) tid=(95,0,0)
[...]
dq_lat_table:0 	0 	0 	0 	0 	0 	0 	0 	0 	0 	0 	0 	0 	0 	0 	0 	0 	0 	0 	0 	0 	0 	0 	0 	0 	0 	0 	0 	0 	0 	0 	0 	
mf_lat_table:0 	0 	0 	0 	0 	0 	0 	0 	3387 	14721 	146595 	146972 	840 	0 	0 	0 	0 	0 	0 	0 	0 	0 	0 	0 	0 	0 	0 	0 	0 	0 	0 	0 	
icnt2mem_lat_table:0 	0 	0 	10571 	2806 	10509 	24305 	24093 	56584 	114216 	68106 	1445 	0 	0 	0 	0 	0 	0 	0 	0 	0 	0 	0 	0 	
icnt2sh_lat_table:0 	0 	0 	179386 	8128 	1 	0 	0 	0 	0 	0 	0 	401 	874 	1935 	3952 	8051 	15951 	32440 	61396 	0 	0 	0 	0 	
mf_lat_pw_table:0 	0 	0 	0 	0 	0 	0 	0 	29 	24 	903 	1097 	0 	0 	0 	0 	0 	0 	0 	0 	0 	0 	0 	0 	0 	0 	0 	0 	0 	0 	0 	0 	
maximum concurrent accesses to same row:
dram[0]:        26        26        14        26        20        24        32        44        14        18        26        28        32        30        20        20 
dram[1]:        24        26        18        16        20        20        32        42        16        16        22        30        32        30        18        14 
dram[2]:        26        26        14        20        28        30        32        42        14        18        28        32        32        30        10        26 
dram[3]:        26        26        20        14        28        24        32        34        18        12        28        22        32        30        16        20 
dram[4]:        26        26        18        14        20        22        40        32        20        18        28        30        30        30        24        20 
dram[5]:        26        26        14        16        20        22        38        32        12        12        28        26        30        30        12        22 
maximum service time to same row:
dram[0]:      6438      6924     14174     10056      5719      4640      4419      4516     13928     10906      4209      4228     10498      7973     12360      8467 
dram[1]:      4431      6935      8631      8127      5713      4310      4299      4406     10554     10076      3829      5091      7464      6585     10460      8424 
dram[2]:      4041      7299      8598      8444      4297      4278      4324      4355      8179     10260      4346      4562      6603      9630      8574      9392 
dram[3]:      4704      6707      9928      7654      4397      4303      4674      4353      8935     10104      4806      4222      6423      6127      8967      8504 
dram[4]:      6384      5974      8637     16946      5108      4243      4359      4275      8473     11271      4680      4322      6532      8649      8007      7975 
dram[5]:      6702      6286      7778      8332      4794      4245      4260      4291      9143      7538      4658      4474      6681      6403      7707      8395 
average row accesses per activate:
dram[0]:  1.522994  1.521827  1.500499  1.517659  1.517750  1.527984  1.533512  1.543860  1.511728  1.516739  1.536602  1.528390  1.527880  1.522795  1.525842  1.537118 
dram[1]:  1.506977  1.507651  1.489601  1.496021  1.492754  1.498182  1.534541  1.531459  1.492498  1.494936  1.505759  1.520266  1.511728  1.515232  1.507246  1.516739 
dram[2]:  1.516550  1.537835  1.505003  1.505003  1.518767  1.532950  1.549611  1.551712  1.503285  1.511229  1.523302  1.534026  1.523302  1.527370  1.508240  1.532485 
dram[3]:  1.505476  1.500662  1.504501  1.493545  1.501159  1.517057  1.535571  1.537634  1.499836  1.497872  1.512227  1.512727  1.518248  1.515232  1.505759  1.517241 
dram[4]:  1.520966  1.529015  1.505003  1.514602  1.524899  1.523170  1.545424  1.554876  1.516236  1.514730  1.537634  1.544902  1.533512  1.534026  1.522289  1.531459 
dram[5]:  1.512342  1.521316  1.494040  1.496021  1.512684  1.506476  1.527370  1.538669  1.502298  1.505759  1.521783  1.514730  1.522795  1.526351  1.513728  1.518248 
average row locality = 437509/288176 = 1.518201
number of total memory accesses made:
dram[0]:         0         0         0         0         0         0         0         0         0         0         0         0         0         0         0         0 
dram[1]:         0         0         0         0         0         0         0         0         0         0         0         0         0         0         0         0 
dram[2]:         0         0         0         0         0         0         0         0         0         0         0         0         0         0         0         0 
dram[3]:         0         0         0         0         0         0         0         0         0         0         0         0         0         0         0         0 
dram[4]:         0         0         0         0         0         0         0         0         0         0         0         0         0         0         0         0 
dram[5]:         0         0         0         0         0         0         0         0         0         0         0         0         0         0         0         0 
total accesses: 0
min_bank_accesses = 0!
min_chip_accesses = 0!
number of total read accesses:
dram[0]:      3251      3246      3232      3232      3242      3242      3264      3264      3264      3264      3264      3264      3264      3264      3264      3264 
dram[1]:      3250      3246      3232      3232      3242      3242      3264      3264      3264      3264      3264      3264      3264      3264      3264      3264 
dram[2]:      3250      3246      3232      3232      3242      3244      3264      3264      3264      3264      3264      3264      3264      3264      3264      3264 
dram[3]:      3250      3246      3232      3232      3242      3244      3264      3264      3264      3264      3264      3264      3264      3264      3264      3264 
dram[4]:      3248      3246      3232      3232      3242      3244      3264      3264      3264      3264      3264      3264      3264      3264      3264      3264 
dram[5]:      3248      3246      3232      3232      3242      3244      3264      3264      3264      3264      3264      3264      3264      3264      3264      3264 
total reads: 312509
bank skew: 3264/3232 = 1.01
chip skew: 52086/52084 = 1.00
number of total write accesses:
dram[0]:      1286      1286      1280      1280      1290      1290      1312      1312      1312      1312      1312      1312      1312      1312      1312      1312 
dram[1]:      1286      1286      1280      1280      1290      1290      1312      1312      1312      1312      1312      1312      1312      1312      1312      1312 
dram[2]:      1286      1286      1280      1280      1290      1292      1312      1312      1312      1312      1312      1312      1312      1312      1312      1312 
dram[3]:      1286      1286      1280      1280      1290      1292      1312      1312      1312      1312      1312      1312      1312      1312      1312      1312 
dram[4]:      1286      1286      1280      1280      1290      1292      1312      1312      1312      1312      1312      1312      1312      1312      1312      1312 
dram[5]:      1286      1286      1280      1280      1290      1292      1312      1312      1312      1312      1312      1312      1312      1312      1312      1312 
total reads: 125000
bank skew: 1312/1280 = 1.02
chip skew: 20834/20832 = 1.00
average mf latency per bank:
dram[0]:       1430      1544      1446      1582      1475      1580      1486      1635      1430      1568      1444      1568      1466      1585      1521      1666
dram[1]:       1165      1142      1209      1157      1198      1190      1249      1222      1182      1172      1198      1164      1212      1186      1267      1278
dram[2]:       1392      1490      1421      1515      1426      1524      1468      1584      1404      1500      1413      1508      1446      1549      1465      1615
dram[3]:       1211      1248      1238      1275      1258      1298      1274      1346      1231      1260      1241      1261      1258      1296      1313      1382
dram[4]:       1679      1707      1722      1731      1715      1753      1745      1794      1682      1711      1697      1738      1731      1749      1755      1819
dram[5]:       1425      1416      1460      1460      1483      1485      1492      1505      1463      1445      1461      1445      1469      1469      1528      1555
maximum mf latency per bank:
dram[0]:       4306      4828      4517      6212      4473      4766      4712      5782      4533      5249      4408      5880      4488      4894      5194      5343
dram[1]:       3975      4668      4365      4179      3984      4165      4101      4340      4176      4317      3937      4395      4407      4693      4171      4555
dram[2]:       4167      4798      4467      4549      4689      4464      4908      4906      5292      4584      5053      5397      4709      5397      4584      5122
dram[3]:       3647      4531      4466      4337      4330      4564      4536      4513      4544      4722      4006      4161      4826      4201      4239      4805
dram[4]:       4861      4934      4937      4479      4826      5255      5460      5073      4797      4598      5598      4611      4661      4816      4632      4880
dram[5]:       4272      4413      4426      4807      4546      4746      4700      4738      4507      5003      4717      5232      4645      4282      4582      5080

Number of Memory Banks Accessed per Memory Operation per Warp (from 0):
0	0	0	0	0	0	0	0	0	0	0	0	0	0	0	0	0	0	0	0	0	0	0	0	0	0	0	0	0	0	0	0	0	0	0	0	0	0	0	0	0	0	0	0	0	0	0	0	0	0	0	0	0	0	0	0	0	0	0	0	0	0	0	0	0	0	0	0	0	0	0	0	0	0	0	0	0	0	0	0	0	0	0	0	0	0	0	0	0	0	0	0	0	0	0	0	
Average # of Memory Banks Accessed per Memory Operation per Warp=-nan

position of mrq chosen
0	0	0	0	0	0	0	0	0	0	0	0	0	0	0	0	

average position of mrq chosen = -nan
Memory Partition 0: 
Cache L2_bank_000:
MSHR contents

Cache L2_bank_001:
MSHR contents

In Dram Latency Queue (total = 0): 
DRAM[0]: 16 bks, busW=4 BL=2 CL=12, tRRD=2 tCCD=6, tRCD=12 tRAS=28 tRP=12 tRC=40
n_cmd=1357089 n_nop=678111 n_act=47829 n_pre=47813 n_req=72917 n_rd=416680 n_write=166656 bw_util=0.2149
n_activity=1340215 dram_eff=0.2176
bk0: 26008a 689964i bk1: 25968a 666736i bk2: 25856a 627702i bk3: 25856a 600877i bk4: 25936a 579620i bk5: 25936a 546609i bk6: 26112a 496370i bk7: 26112a 432542i bk8: 26112a 673898i bk9: 26112a 635827i bk10: 26112a 631413i bk11: 26112a 590180i bk12: 26112a 556705i bk13: 26112a 533776i bk14: 26112a 485295i bk15: 26112a 432289i 
dram_util_bins: 0 0 0 0 0 0 0 0 0 0
dram_eff_bins: 0 0 0 0 0 0 0 0 0 0
mrqq: max=16 avg=15.578
Memory Partition 1: 
Cache L2_bank_002:
MSHR contents

Cache L2_bank_003:
MSHR contents

In Dram Latency Queue (total = 0): 
DRAM[1]: 16 bks, busW=4 BL=2 CL=12, tRRD=2 tCCD=6, tRCD=12 tRAS=28 tRP=12 tRC=40
n_cmd=1357089 n_nop=677041 n_act=48368 n_pre=48352 n_req=72916 n_rd=416672 n_write=166656 bw_util=0.2149
n_activity=1344009 dram_eff=0.217
bk0: 26000a 694606i bk1: 25968a 672548i bk2: 25856a 632683i bk3: 25856a 621845i bk4: 25936a 599547i bk5: 25936a 547534i bk6: 26112a 502265i bk7: 26112a 456750i bk8: 26112a 686012i bk9: 26112a 646295i bk10: 26112a 633434i bk11: 26112a 612756i bk12: 26112a 567086i bk13: 26112a 544686i bk14: 26112a 503995i bk15: 26112a 428005i 
dram_util_bins: 0 0 0 0 0 0 0 0 0 0
dram_eff_bins: 0 0 0 0 0 0 0 0 0 0
mrqq: max=16 avg=15.2994
Memory Partition 2: 
Cache L2_bank_004:
MSHR contents

Cache L2_bank_005:
MSHR contents

In Dram Latency Queue (total = 0): 
DRAM[2]: 16 bks, busW=4 BL=2 CL=12, tRRD=2 tCCD=6, tRCD=12 tRAS=28 tRP=12 tRC=40
n_cmd=1357089 n_nop=678029 n_act=47858 n_pre=47842 n_req=72920 n_rd=416688 n_write=166672 bw_util=0.2149
n_activity=1339989 dram_eff=0.2177
bk0: 26000a 684355i bk1: 25968a 658549i bk2: 25856a 636376i bk3: 25856a 610383i bk4: 25936a 587945i bk5: 25952a 549027i bk6: 26112a 512637i bk7: 26112a 449219i bk8: 26112a 686941i bk9: 26112a 649841i bk10: 26112a 629499i bk11: 26112a 592496i bk12: 26112a 561649i bk13: 26112a 534984i bk14: 26112a 497513i bk15: 26112a 437397i 
dram_util_bins: 0 0 0 0 0 0 0 0 0 0
dram_eff_bins: 0 0 0 0 0 0 0 0 0 0
mrqq: max=16 avg=15.5436
Memory Partition 3: 
Cache L2_bank_006:
MSHR contents

Cache L2_bank_007:
MSHR contents

In Dram Latency Queue (total = 0): 
DRAM[3]: 16 bks, busW=4 BL=2 CL=12, tRRD=2 tCCD=6, tRCD=12 tRAS=28 tRP=12 tRC=40
n_cmd=1357089 n_nop=677217 n_act=48264 n_pre=48248 n_req=72920 n_rd=416688 n_write=166672 bw_util=0.2149
n_activity=1343200 dram_eff=0.2172
bk0: 26000a 699083i bk1: 25968a 657299i bk2: 25856a 652978i bk3: 25856a 619013i bk4: 25936a 584455i bk5: 25952a 556136i bk6: 26112a 521138i bk7: 26112a 464271i bk8: 26112a 685390i bk9: 26112a 655716i bk10: 26112a 632815i bk11: 26112a 606142i bk12: 26112a 587106i bk13: 26112a 541385i bk14: 26112a 501627i bk15: 26112a 446223i 
dram_util_bins: 0 0 0 0 0 0 0 0 0 0
dram_eff_bins: 0 0 0 0 0 0 0 0 0 0
mrqq: max=16 avg=15.3055
Memory Partition 4: 
Cache L2_bank_008:
MSHR contents

Cache L2_bank_009:
MSHR contents

In Dram Latency Queue (total = 0): 
DRAM[4]: 16 bks, busW=4 BL=2 CL=12, tRRD=2 tCCD=6, tRCD=12 tRAS=28 tRP=12 tRC=40
n_cmd=1357089 n_nop=678333 n_act=47714 n_pre=47698 n_req=72918 n_rd=416672 n_write=166672 bw_util=0.2149
n_activity=1341118 dram_eff=0.2175
bk0: 25984a 707057i bk1: 25968a 667476i bk2: 25856a 646638i bk3: 25856a 612920i bk4: 25936a 587650i bk5: 25952a 555559i bk6: 26112a 506823i bk7: 26112a 448354i bk8: 26112a 680949i bk9: 26112a 652150i bk10: 26112a 642675i bk11: 26112a 606032i bk12: 26112a 574674i bk13: 26112a 535968i bk14: 26112a 503179i bk15: 26112a 441181i 
dram_util_bins: 0 0 0 0 0 0 0 0 0 0
dram_eff_bins: 0 0 0 0 0 0 0 0 0 0
mrqq: max=16 avg=15.6747
Memory Partition 5: 
Cache L2_bank_010:
MSHR contents
MSHR: tag=0x80f20d80, atomic=0 1 entries : 0x7fba14f5d3d0 :  mf: uid=17828460, sid03:w31, part=5, addr=0x80f20d80, load , size=128, unknown  status = IN_PARTITION_DRAM (1028097), 

Cache L2_bank_011:
MSHR contents

In Dram Latency Queue (total = 0): 
DRAM[5]: 16 bks, busW=4 BL=2 CL=12, tRRD=2 tCCD=6, tRCD=12 tRAS=28 tRP=12 tRC=40
n_cmd=1357089 n_nop=677480 n_act=48143 n_pre=48127 n_req=72918 n_rd=416667 n_write=166672 bw_util=0.2149
n_activity=1343707 dram_eff=0.2171
bk0: 25984a 699386i bk1: 25968a 672956i bk2: 25856a 643498i bk3: 25856a 618904i bk4: 25936a 592187i bk5: 25952a 550623i bk6: 26112a 508790i bk7: 26112a 457676i bk8: 26112a 676424i bk9: 26112a 663317i bk10: 26107a 628779i bk11: 26112a 605624i bk12: 26112a 565609i bk13: 26112a 539037i bk14: 26112a 494925i bk15: 26112a 436362i 
dram_util_bins: 0 0 0 0 0 0 0 0 0 0
dram_eff_bins: 0 0 0 0 0 0 0 0 0 0
mrqq: max=16 avg=15.4014

========= L2 cache stats =========
L2_cache_bank[0]: Access = 26087, Miss = 26045, Miss_rate = 0.998, Pending_hits = 9, Reservation_fails = 71539
L2_cache_bank[1]: Access = 26040, Miss = 26040, Miss_rate = 1.000, Pending_hits = 0, Reservation_fails = 106921
L2_cache_bank[2]: Access = 26072, Miss = 26044, Miss_rate = 0.999, Pending_hits = 6, Reservation_fails = 12988
L2_cache_bank[3]: Access = 26040, Miss = 26040, Miss_rate = 1.000, Pending_hits = 0, Reservation_fails = 20952
L2_cache_bank[4]: Access = 26072, Miss = 26044, Miss_rate = 0.999, Pending_hits = 6, Reservation_fails = 41614
L2_cache_bank[5]: Access = 26042, Miss = 26042, Miss_rate = 1.000, Pending_hits = 0, Reservation_fails = 49562
L2_cache_bank[6]: Access = 26072, Miss = 26044, Miss_rate = 0.999, Pending_hits = 6, Reservation_fails = 19784
L2_cache_bank[7]: Access = 26042, Miss = 26042, Miss_rate = 1.000, Pending_hits = 0, Reservation_fails = 24924
L2_cache_bank[8]: Access = 26042, Miss = 26042, Miss_rate = 1.000, Pending_hits = 0, Reservation_fails = 29463
L2_cache_bank[9]: Access = 26042, Miss = 26042, Miss_rate = 1.000, Pending_hits = 0, Reservation_fails = 45396
L2_cache_bank[10]: Access = 26042, Miss = 26042, Miss_rate = 1.000, Pending_hits = 0, Reservation_fails = 18809
L2_cache_bank[11]: Access = 26042, Miss = 26042, Miss_rate = 1.000, Pending_hits = 0, Reservation_fails = 31050
L2_total_cache_accesses = 312635
L2_total_cache_misses = 312509
L2_total_cache_miss_rate = 0.9996
L2_total_cache_pending_hits = 27
L2_total_cache_reservation_fails = 473002
L2_total_cache_breakdown:
	L2_cache_stats_breakdown[GLOBAL_ACC_R][MISS] = 187500
	L2_cache_stats_breakdown[GLOBAL_ACC_R][RESERVATION_FAIL] = 285595
	L2_cache_stats_breakdown[CONST_ACC_R][HIT] = 11
	L2_cache_stats_breakdown[CONST_ACC_R][HIT_RESERVED] = 3
	L2_cache_stats_breakdown[CONST_ACC_R][MISS] = 1
	L2_cache_stats_breakdown[CONST_ACC_R][RESERVATION_FAIL] = 122
	L2_cache_stats_breakdown[GLOBAL_ACC_W][MISS] = 125000
	L2_cache_stats_breakdown[GLOBAL_ACC_W][RESERVATION_FAIL] = 185657
	L2_cache_stats_breakdown[INST_ACC_R][HIT] = 88
	L2_cache_stats_breakdown[INST_ACC_R][HIT_RESERVED] = 24
	L2_cache_stats_breakdown[INST_ACC_R][MISS] = 8
	L2_cache_stats_breakdown[INST_ACC_R][RESERVATION_FAIL] = 1628
L2_cache_data_port_util = 0.000
L2_cache_fill_port_util = 0.101

icnt_total_pkts_mem_to_simt=1063145
icnt_total_pkts_simt_to_mem=812635
LD_mem_lat_dist  0 0 0 0 0 0 0 0 0 0 0 0 0 0 0 0 0 0 0 0 0 0 0 0 0 0 0
ST_mem_lat_dist  0 0 0 0 0 0 0 0 0 0 0 0 0 0 0 0 0 0 0 0 0 0 0 0 0 0 0
----------------------------Interconnect-DETAILS--------------------------------
Class 0:
Packet latency average = 158.735
	minimum = 6
	maximum = 2627
Network latency average = 101.929
	minimum = 6
	maximum = 2255
Slowest packet = 4040
Flit latency average = 73.2851
	minimum = 6
	maximum = 2251
Slowest flit = 700104
Fragmentation average = 2.76908
	minimum = 0
	maximum = 1486
Injected packet rate average = 0.0225252
	minimum = 0.0196372 (at node 8)
	maximum = 0.025374 (at node 15)
Accepted packet rate average = 0.0225252
	minimum = 0.0196372 (at node 8)
	maximum = 0.025374 (at node 15)
Injected flit rate average = 0.0675746
	minimum = 0.0510428 (at node 8)
	maximum = 0.0863157 (at node 15)
Accepted flit rate average= 0.0675746
	minimum = 0.0658536 (at node 16)
	maximum = 0.0710779 (at node 5)
Injected packet length average = 2.99995
Accepted packet length average = 2.99995
Total in-flight flits = 0 (0 measured)
====== Overall Traffic Statistics ======
====== Traffic class 0 ======
Packet latency average = 158.735 (1 samples)
	minimum = 6 (1 samples)
	maximum = 2627 (1 samples)
Network latency average = 101.929 (1 samples)
	minimum = 6 (1 samples)
	maximum = 2255 (1 samples)
Flit latency average = 73.2851 (1 samples)
	minimum = 6 (1 samples)
	maximum = 2251 (1 samples)
Fragmentation average = 2.76908 (1 samples)
	minimum = 0 (1 samples)
	maximum = 1486 (1 samples)
Injected packet rate average = 0.0225252 (1 samples)
	minimum = 0.0196372 (1 samples)
	maximum = 0.025374 (1 samples)
Accepted packet rate average = 0.0225252 (1 samples)
	minimum = 0.0196372 (1 samples)
	maximum = 0.025374 (1 samples)
Injected flit rate average = 0.0675746 (1 samples)
	minimum = 0.0510428 (1 samples)
	maximum = 0.0863157 (1 samples)
Accepted flit rate average = 0.0675746 (1 samples)
	minimum = 0.0658536 (1 samples)
	maximum = 0.0710779 (1 samples)
Injected packet size average = 2.99995 (1 samples)
Accepted packet size average = 2.99995 (1 samples)
Hops average = 1 (1 samples)
----------------------------END-of-Interconnect-DETAILS-------------------------
GPGPU-Sim API: Stream Manager State


gpgpu_simulation_time = 0 days, 0 hrs, 14 min, 12 sec (852 sec)
gpgpu_simulation_rate = 229790 (inst/sec)
gpgpu_simulation_rate = 1206 (cycle/sec)
GPGPU-Sim: detected inactive GPU simulation thread
Options count             : 4000000     
BlackScholesGPU() time    : 849364.000000 msec
Effective memory bandwidth: 0.000047 GB/s
Gigaoptions per second    : 0.000005     
Reading back GPU results...
Checking the results...
...running CPU calculations.
Comparing the results...
L1 norm: 1.729535E-07
Max absolute error: 1.192093E-05
TEST PASSED
Shutting down...
...releasing GPU memory.
...releasing CPU memory.
Shutdown done.
GPGPU-Sim: exit_simulation called
GPGPU-Sim: simulation thread signaled exit

Press ENTER to exit...
