

        *** GPGPU-Sim Simulator Version 3.2.2  [build 0] ***


GPGPU-Sim PTX: simulation mode 0 (can change with PTX_SIM_MODE_FUNC environment variable:
               1=functional simulation only, 0=detailed performance simulator)
GPGPU-Sim: Configuration options:

-network_mode                           1 # Interconnection network mode
-inter_config_file   config_fermi_islip.icnt # Interconnection network config file
-gpgpu_ptx_use_cuobjdump                    1 # Use cuobjdump to extract ptx and sass from binaries
-gpgpu_experimental_lib_support                    0 # Try to extract code from cuda libraries [Broken because of unknown cudaGetExportTable]
-gpgpu_ptx_convert_to_ptxplus                    0 # Convert SASS (native ISA) to ptxplus and run ptxplus
-gpgpu_ptx_force_max_capability                   20 # Force maximum compute capability
-gpgpu_ptx_inst_debug_to_file                    0 # Dump executed instructions' debug information to file
-gpgpu_ptx_inst_debug_file       inst_debug.txt # Executed instructions' debug output file
-gpgpu_ptx_inst_debug_thread_uid                    1 # Thread UID for executed instructions' debug output
-gpgpu_simd_model                       1 # 1 = post-dominator
-gpgpu_shader_core_pipeline              1536:32 # shader core pipeline config, i.e., {<nthread>:<warpsize>}
-gpgpu_tex_cache:l1  4:128:24,L:R:m:N:L,F:128:4,128:2 # per-shader L1 texture cache  (READ-ONLY) config  {<nsets>:<bsize>:<assoc>,<rep>:<wr>:<alloc>:<wr_alloc>,<mshr>:<N>:<merge>,<mq>:<rf>}
-gpgpu_const_cache:l1 64:64:2,L:R:f:N:L,A:2:32,4 # per-shader L1 constant memory cache  (READ-ONLY) config  {<nsets>:<bsize>:<assoc>,<rep>:<wr>:<alloc>:<wr_alloc>,<mshr>:<N>:<merge>,<mq>} 
-gpgpu_cache:il1     4:128:4,L:R:f:N:L,A:2:32,4 # shader L1 instruction cache config  {<nsets>:<bsize>:<assoc>,<rep>:<wr>:<alloc>:<wr_alloc>,<mshr>:<N>:<merge>,<mq>} 
-gpgpu_cache:dl1     32:128:4,L:L:m:N:H,A:32:8,8 # per-shader L1 data cache config  {<nsets>:<bsize>:<assoc>,<rep>:<wr>:<alloc>:<wr_alloc>,<mshr>:<N>:<merge>,<mq> | none}
-gpgpu_cache:dl1PrefL1                 none # per-shader L1 data cache config  {<nsets>:<bsize>:<assoc>,<rep>:<wr>:<alloc>:<wr_alloc>,<mshr>:<N>:<merge>,<mq> | none}
-gpgpu_cache:dl1PreShared                 none # per-shader L1 data cache config  {<nsets>:<bsize>:<assoc>,<rep>:<wr>:<alloc>:<wr_alloc>,<mshr>:<N>:<merge>,<mq> | none}
-gmem_skip_L1D                          0 # global memory access skip L1D cache (implements -Xptxas -dlcm=cg, default=no skip)
-gpgpu_perfect_mem                      0 # enable perfect memory mode (no cache miss)
-n_regfile_gating_group                    4 # group of lanes that should be read/written together)
-gpgpu_clock_gated_reg_file                    0 # enable clock gated reg file for power calculations
-gpgpu_clock_gated_lanes                    0 # enable clock gated lanes for power calculations
-gpgpu_shader_registers                32768 # Number of registers per shader core. Limits number of concurrent CTAs. (default 8192)
-gpgpu_shader_cta                       8 # Maximum number of concurrent CTAs in shader (default 8)
-gpgpu_num_cta_barriers                   16 # Maximum number of named barriers per CTA (default 16)
-gpgpu_n_clusters                      15 # number of processing clusters
-gpgpu_n_cores_per_cluster                    1 # number of simd cores per cluster
-gpgpu_n_cluster_ejection_buffer_size                    8 # number of packets in ejection buffer
-gpgpu_n_ldst_response_buffer_size                    2 # number of response packets in ld/st unit ejection buffer
-gpgpu_shmem_size                   16384 # Size of shared memory per shader core (default 16kB)
-gpgpu_shmem_size                   49152 # Size of shared memory per shader core (default 16kB)
-gpgpu_shmem_size_PrefL1                16384 # Size of shared memory per shader core (default 16kB)
-gpgpu_shmem_size_PrefShared                16384 # Size of shared memory per shader core (default 16kB)
-gpgpu_shmem_num_banks                   32 # Number of banks in the shared memory in each shader core (default 16)
-gpgpu_shmem_limited_broadcast                    0 # Limit shared memory to do one broadcast per cycle (default on)
-gpgpu_shmem_warp_parts                    1 # Number of portions a warp is divided into for shared memory bank conflict check 
-gpgpu_warpdistro_shader                   -1 # Specify which shader core to collect the warp size distribution from
-gpgpu_warp_issue_shader                    0 # Specify which shader core to collect the warp issue distribution from
-gpgpu_local_mem_map                    1 # Mapping from local memory space address to simulated GPU physical address space (default = enabled)
-gpgpu_num_reg_banks                   16 # Number of register banks (default = 8)
-gpgpu_reg_bank_use_warp_id                    0 # Use warp ID in mapping registers to banks (default = off)
-gpgpu_operand_collector_num_units_sp                    6 # number of collector units (default = 4)
-gpgpu_operand_collector_num_units_sfu                    8 # number of collector units (default = 4)
-gpgpu_operand_collector_num_units_mem                    2 # number of collector units (default = 2)
-gpgpu_operand_collector_num_units_gen                    0 # number of collector units (default = 0)
-gpgpu_operand_collector_num_in_ports_sp                    2 # number of collector unit in ports (default = 1)
-gpgpu_operand_collector_num_in_ports_sfu                    1 # number of collector unit in ports (default = 1)
-gpgpu_operand_collector_num_in_ports_mem                    1 # number of collector unit in ports (default = 1)
-gpgpu_operand_collector_num_in_ports_gen                    0 # number of collector unit in ports (default = 0)
-gpgpu_operand_collector_num_out_ports_sp                    2 # number of collector unit in ports (default = 1)
-gpgpu_operand_collector_num_out_ports_sfu                    1 # number of collector unit in ports (default = 1)
-gpgpu_operand_collector_num_out_ports_mem                    1 # number of collector unit in ports (default = 1)
-gpgpu_operand_collector_num_out_ports_gen                    0 # number of collector unit in ports (default = 0)
-gpgpu_coalesce_arch                   13 # Coalescing arch (default = 13, anything else is off for now)
-gpgpu_num_sched_per_core                    2 # Number of warp schedulers per core
-gpgpu_max_insn_issue_per_warp                    1 # Max number of instructions that can be issued per warp in one cycle by scheduler
-gpgpu_simt_core_sim_order                    1 # Select the simulation order of cores in a cluster (0=Fix, 1=Round-Robin)
-gpgpu_pipeline_widths        2,1,1,2,1,1,2 # Pipeline widths ID_OC_SP,ID_OC_SFU,ID_OC_MEM,OC_EX_SP,OC_EX_SFU,OC_EX_MEM,EX_WB
-gpgpu_num_sp_units                     2 # Number of SP units (default=1)
-gpgpu_num_sfu_units                    1 # Number of SF units (default=1)
-gpgpu_num_mem_units                    1 # Number if ldst units (default=1) WARNING: not hooked up to anything
-gpgpu_scheduler                      gto # Scheduler configuration: < lrr | gto | two_level_active > If two_level_active:<num_active_warps>:<inner_prioritization>:<outer_prioritization>For complete list of prioritization values see shader.h enum scheduler_prioritization_typeDefault: gto
-gpgpu_dram_scheduler                    1 # 0 = fifo, 1 = FR-FCFS (defaul)
-gpgpu_dram_partition_queues              8:8:8:8 # i2$:$2d:d2$:$2i
-l2_ideal                               0 # Use a ideal L2 cache that always hit
-gpgpu_cache:dl2     32:128:8,L:B:m:W:L,A:32:4,4:0,32 # unified banked L2 data cache config  {<nsets>:<bsize>:<assoc>,<rep>:<wr>:<alloc>:<wr_alloc>,<mshr>:<N>:<merge>,<mq>}
-gpgpu_cache:dl2_texture_only                    0 # L2 cache used for texture only
-gpgpu_n_mem                            6 # number of memory modules (e.g. memory controllers) in gpu
-gpgpu_n_sub_partition_per_mchannel                    2 # number of memory subpartition in each memory module
-gpgpu_n_mem_per_ctrlr                    2 # number of memory chips per memory controller
-gpgpu_memlatency_stat                   14 # track and display latency statistics 0x2 enables MC, 0x4 enables queue logs
-gpgpu_frfcfs_dram_sched_queue_size                   16 # 0 = unlimited (default); # entries per chip
-gpgpu_dram_return_queue_size                  116 # 0 = unlimited (default); # entries per chip
-gpgpu_dram_buswidth                    4 # default = 4 bytes (8 bytes per cycle at DDR)
-gpgpu_dram_burst_length                    8 # Burst length of each DRAM request (default = 4 data bus cycle)
-dram_data_command_freq_ratio                    4 # Frequency ratio between DRAM data bus and command bus (default = 2 times, i.e. DDR)
-gpgpu_dram_timing_opt nbk=16:CCD=2:RRD=6:RCD=12:RAS=28:RP=12:RC=40: CL=12:WL=4:CDLR=5:WR=12:nbkgrp=4:CCDL=3:RTPL=2 # DRAM timing parameters = {nbk:tCCD:tRRD:tRCD:tRAS:tRP:tRC:CL:WL:tCDLR:tWR:nbkgrp:tCCDL:tRTPL}
-rop_latency                          120 # ROP queue latency (default 85)
-dram_latency                         100 # DRAM latency (default 30)
-gpgpu_mem_addr_mapping dramid@8;00000000.00000000.00000000.00000000.0000RRRR.RRRRRRRR.BBBCCCCB.CCSSSSSS # mapping memory address to dram model {dramid@<start bit>;<memory address map>}
-gpgpu_mem_addr_test                    0 # run sweep test to check address mapping for aliased address
-gpgpu_mem_address_mask                    1 # 0 = old addressing mask, 1 = new addressing mask, 2 = new add. mask + flipped bank sel and chip sel bits
-gpuwattch_xml_file  gpuwattch_gtx480.xml # GPUWattch XML file
-power_simulation_enabled                    0 # Turn on power simulator (1=On, 0=Off)
-power_per_cycle_dump                    0 # Dump detailed power output each cycle
-power_trace_enabled                    0 # produce a file for the power trace (1=On, 0=Off)
-power_trace_zlevel                     6 # Compression level of the power trace output log (0=no comp, 9=highest)
-steady_power_levels_enabled                    0 # produce a file for the steady power levels (1=On, 0=Off)
-steady_state_definition                  8:4 # allowed deviation:number of samples
-gpgpu_max_cycle                        0 # terminates gpu simulation early (0 = no limit)
-gpgpu_max_insn                         0 # terminates gpu simulation early (0 = no limit)
-gpgpu_max_cta                          0 # terminates gpu simulation early (0 = no limit)
-gpgpu_runtime_stat                   500 # display runtime statistics such as dram utilization {<freq>:<flag>}
-liveness_message_freq                    1 # Minimum number of seconds between simulation liveness messages (0 = always print)
-gpgpu_flush_l1_cache                    0 # Flush L1 cache at the end of each kernel call
-gpgpu_flush_l2_cache                    0 # Flush L2 cache at the end of each kernel call
-gpgpu_deadlock_detect                    1 # Stop the simulation at deadlock (1=on (default), 0=off)
-gpgpu_ptx_instruction_classification                    0 # if enabled will classify ptx instruction types per kernel (Max 255 kernels now)
-gpgpu_ptx_sim_mode                     0 # Select between Performance (default) or Functional simulation (1)
-gpgpu_clock_domains 700.0:700.0:700.0:924.0 # Clock Domain Frequencies in MhZ {<Core Clock>:<ICNT Clock>:<L2 Clock>:<DRAM Clock>}
-gpgpu_max_concurrent_kernel                    8 # maximum kernels that can run concurrently on GPU
-gpgpu_cflog_interval                    0 # Interval between each snapshot in control flow logger
-visualizer_enabled                     0 # Turn on visualizer output (1=On, 0=Off)
-visualizer_outputfile                 NULL # Specifies the output log file for visualizer
-visualizer_zlevel                      6 # Compression level of the visualizer output log (0=no comp, 9=highest)
-trace_enabled                          0 # Turn on traces
-trace_components                    none # comma seperated list of traces to enable. Complete list found in trace_streams.tup. Default none
-trace_sampling_core                    0 # The core which is printed using CORE_DPRINTF. Default 0
-trace_sampling_memory_partition                   -1 # The memory partition which is printed using MEMPART_DPRINTF. Default -1 (i.e. all)
-enable_ptx_file_line_stats                    1 # Turn on PTX source line statistic profiling. (1 = On)
-ptx_line_stats_filename gpgpu_inst_stats.txt # Output file for PTX source line statistics.
-save_embedded_ptx                      0 # saves ptx files embedded in binary as <n>.ptx
-keep                                   0 # keep intermediate files created by GPGPU-Sim when interfacing with external programs
-gpgpu_ptx_save_converted_ptxplus                    0 # Saved converted ptxplus to a file
-ptx_opcode_latency_int         4,13,4,5,145 # Opcode latencies for integers <ADD,MAX,MUL,MAD,DIV>Default 1,1,19,25,145
-ptx_opcode_latency_fp          4,13,4,5,39 # Opcode latencies for single precision floating points <ADD,MAX,MUL,MAD,DIV>Default 1,1,1,1,30
-ptx_opcode_latency_dp         8,19,8,8,330 # Opcode latencies for double precision floating points <ADD,MAX,MUL,MAD,DIV>Default 8,8,8,8,335
-ptx_opcode_initiation_int            1,2,2,1,8 # Opcode initiation intervals for integers <ADD,MAX,MUL,MAD,DIV>Default 1,1,4,4,32
-ptx_opcode_initiation_fp            1,2,1,1,4 # Opcode initiation intervals for single precision floating points <ADD,MAX,MUL,MAD,DIV>Default 1,1,1,1,5
-ptx_opcode_initiation_dp         8,16,8,8,130 # Opcode initiation intervals for double precision floating points <ADD,MAX,MUL,MAD,DIV>Default 8,8,8,8,130
DRAM Timing Options:
nbk                                    16 # number of banks
CCD                                     2 # column to column delay
RRD                                     6 # minimal delay between activation of rows in different banks
RCD                                    12 # row to column delay
RAS                                    28 # time needed to activate row
RP                                     12 # time needed to precharge (deactivate) row
RC                                     40 # row cycle time
CDLR                                    5 # switching from write to read (changes tWTR)
WR                                     12 # last data-in to row precharge
CL                                     12 # CAS latency
WL                                      4 # Write latency
nbkgrp                                  4 # number of bank groups
CCDL                                    3 # column to column delay between accesses to different bank groups
RTPL                                    2 # read to precharge delay between accesses to different bank groups
Total number of memory sub partition = 12
addr_dec_mask[CHIP]  = 0000000000000000 	high:64 low:0
addr_dec_mask[BK]    = 000000000000e100 	high:16 low:8
addr_dec_mask[ROW]   = 000000000fff0000 	high:28 low:16
addr_dec_mask[COL]   = 0000000000001eff 	high:13 low:0
addr_dec_mask[BURST] = 000000000000003f 	high:6 low:0
sub_partition_id_mask = 0000000000000100
GPGPU-Sim uArch: clock freqs: 700000000.000000:700000000.000000:700000000.000000:924000000.000000
GPGPU-Sim uArch: clock periods: 0.00000000142857142857:0.00000000142857142857:0.00000000142857142857:0.00000000108225108225
*** Initializing Memory Statistics ***
GPGPU-Sim uArch: interconnect node map (shaderID+MemID to icntID)
GPGPU-Sim uArch: Memory nodes ID start from index: 15
GPGPU-Sim uArch:    0   1   2   3   4
GPGPU-Sim uArch:    5   6   7   8   9
GPGPU-Sim uArch:   10  11  12  13  14
GPGPU-Sim uArch:   15  16  17  18  19
GPGPU-Sim uArch:   20  21  22  23  24
GPGPU-Sim uArch:   25  26
GPGPU-Sim uArch: interconnect node reverse map (icntID to shaderID+MemID)
GPGPU-Sim uArch: Memory nodes start from ID: 15
GPGPU-Sim uArch:    0   1   2   3   4
GPGPU-Sim uArch:    5   6   7   8   9
GPGPU-Sim uArch:   10  11  12  13  14
GPGPU-Sim uArch:   15  16  17  18  19
GPGPU-Sim uArch:   20  21  22  23  24
GPGPU-Sim uArch:   25  26
316bcbff5f8f022bb22b20bb4721e93e  /sciclone/data20/adwait/applications/benchmarks/CUDA/RAY/gpgpu_ptx_sim__RAY
GPGPU-Sim uArch: performance model initialization complete.
GPGPU-Sim PTX: __cudaRegisterFatBinary, fat_cubin_handle = 1, filename=rayTracing.cu
self exe links to: /sciclone/data20/adwait/applications/benchmarks/CUDA/RAY/gpgpu_ptx_sim__RAY
Running md5sum using "md5sum /sciclone/data20/adwait/applications/benchmarks/CUDA/RAY/gpgpu_ptx_sim__RAY "
Parsing file _cuobjdump_complete_output_0hOSI8
######### cuobjdump parser ########
## Adding new section ELF
Adding arch: sm_20
Adding identifier: rayTracing.cu
## Adding new section PTX
Adding ptx filename: _cuobjdump_1.ptx
Adding arch: sm_20
Adding identifier: rayTracing.cu
Done parsing!!!
GPGPU-Sim PTX: __cudaRegisterFunction _Z6renderPjP4Nodejjff : hostFun 0x0x40ce13, fat_cubin_handle = 1
GPGPU-Sim PTX: allocating stack frame region for .param "__cudaretf__Zmi6float3S_" from 0x0 to 0xc
GPGPU-Sim PTX: allocating stack frame region for .param "__cudaparmf1__Zmi6float3S_" from 0xc to 0x18
GPGPU-Sim PTX: allocating stack frame region for .param "__cudaparmf2__Zmi6float3S_" from 0x18 to 0x24
GPGPU-Sim PTX: allocating stack frame region for .param "__cudaretf__Z9normalize6float3" from 0x0 to 0xc
GPGPU-Sim PTX: allocating stack frame region for .param "__cudaparmf1__Z9normalize6float3" from 0xc to 0x18
GPGPU-Sim PTX: allocating stack frame region for .param "__cudaretf__Z18intersectionSphere5Rayon6float3f" from 0x0 to 0x4
GPGPU-Sim PTX: allocating stack frame region for .param "__cudaparmf1__Z18intersectionSphere5Rayon6float3f" from 0x4 to 0x1c
GPGPU-Sim PTX: allocating stack frame region for .param "__cudaparmf2__Z18intersectionSphere5Rayon6float3f" from 0x1c to 0x28
GPGPU-Sim PTX: allocating stack frame region for .param "__cudaparmf3__Z18intersectionSphere5Rayon6float3f" from 0x28 to 0x2c
GPGPU-Sim PTX: allocating stack frame region for .param "__cudaretf__Z16intersectionPlan5Rayon6float3S0_" from 0x0 to 0x4
GPGPU-Sim PTX: allocating stack frame region for .param "__cudaparmf1__Z16intersectionPlan5Rayon6float3S0_" from 0x4 to 0x1c
GPGPU-Sim PTX: allocating stack frame region for .param "__cudaparmf2__Z16intersectionPlan5Rayon6float3S0_" from 0x1c to 0x28
GPGPU-Sim PTX: allocating stack frame region for .param "__cudaparmf3__Z16intersectionPlan5Rayon6float3S0_" from 0x28 to 0x34
GPGPU-Sim PTX: allocating stack frame region for .param "__cudaretf__Z10getNormale6float3S_" from 0x0 to 0xc
GPGPU-Sim PTX: allocating stack frame region for .param "__cudaparmf1__Z10getNormale6float3S_" from 0xc to 0x18
GPGPU-Sim PTX: allocating stack frame region for .param "__cudaparmf2__Z10getNormale6float3S_" from 0x18 to 0x24
GPGPU-Sim PTX: allocating stack frame region for .param "__cudaretf__Z11getNormaleP6float3" from 0x0 to 0xc
GPGPU-Sim PTX: allocating stack frame region for .param "__cudaparmf1__Z11getNormaleP6float3" from 0xc to 0x18
GPGPU-Sim PTX: allocating stack frame region for .param "__cudaretf__Z14rgbaFloatToInt6float4" from 0x0 to 0x4
GPGPU-Sim PTX: allocating stack frame region for .param "__cudaparmf1__Z14rgbaFloatToInt6float4" from 0x4 to 0x14
GPGPU-Sim PTX: allocating stack frame region for .param "__cudaretf__Z12notShadowRayP4Node6float3S1_f" from 0x0 to 0x4
GPGPU-Sim PTX: allocating stack frame region for .param "__cudaparmf1__Z12notShadowRayP4Node6float3S1_f" from 0x4 to 0xc
GPGPU-Sim PTX: allocating stack frame region for .param "__cudaparmf2__Z12notShadowRayP4Node6float3S1_f" from 0xc to 0x18
GPGPU-Sim PTX: allocating stack frame region for .param "__cudaparmf3__Z12notShadowRayP4Node6float3S1_f" from 0x18 to 0x24
GPGPU-Sim PTX: allocating stack frame region for .param "__cudaparmf4__Z12notShadowRayP4Node6float3S1_f" from 0x24 to 0x28
GPGPU-Sim PTX: allocating stack frame region for .param "__cudaretf__Z15float2int_pow20f" from 0x0 to 0x4
GPGPU-Sim PTX: allocating stack frame region for .param "__cudaparmf1__Z15float2int_pow20f" from 0x4 to 0x8
GPGPU-Sim PTX: allocating stack frame region for .param "__cudaretf__Z15float2int_pow50f" from 0x0 to 0x4
GPGPU-Sim PTX: allocating stack frame region for .param "__cudaparmf1__Z15float2int_pow50f" from 0x4 to 0x8
GPGPU-Sim PTX: allocating stack frame region for .param "__cudaparmf1__ZN4dim3C1Ejjj" from 0x0 to 0x8
GPGPU-Sim PTX: allocating stack frame region for .param "__cudaparmf2__ZN4dim3C1Ejjj" from 0x8 to 0xc
GPGPU-Sim PTX: allocating stack frame region for .param "__cudaparmf3__ZN4dim3C1Ejjj" from 0xc to 0x10
GPGPU-Sim PTX: allocating stack frame region for .param "__cudaparmf4__ZN4dim3C1Ejjj" from 0x10 to 0x14
GPGPU-Sim PTX: instruction assembly for function '_Zmi6float3S_'...   done.
GPGPU-Sim PTX: finding reconvergence points for '_Zmi6float3S_'...
GPGPU-Sim PTX: Finding dominators for '_Zmi6float3S_'...
GPGPU-Sim PTX: Finding immediate dominators for '_Zmi6float3S_'...
GPGPU-Sim PTX: Finding postdominators for '_Zmi6float3S_'...
GPGPU-Sim PTX: Finding immediate postdominators for '_Zmi6float3S_'...
GPGPU-Sim PTX: pre-decoding instructions for '_Zmi6float3S_'...
GPGPU-Sim PTX: reconvergence points for _Zmi6float3S_...
GPGPU-Sim PTX: ... end of reconvergence points for _Zmi6float3S_
GPGPU-Sim PTX: ... done pre-decoding instructions for '_Zmi6float3S_'.
GPGPU-Sim PTX: instruction assembly for function '_Z9normalize6float3'...   done.
GPGPU-Sim PTX: finding reconvergence points for '_Z9normalize6float3'...
GPGPU-Sim PTX: Finding dominators for '_Z9normalize6float3'...
GPGPU-Sim PTX: Finding immediate dominators for '_Z9normalize6float3'...
GPGPU-Sim PTX: Finding postdominators for '_Z9normalize6float3'...
GPGPU-Sim PTX: Finding immediate postdominators for '_Z9normalize6float3'...
GPGPU-Sim PTX: pre-decoding instructions for '_Z9normalize6float3'...
GPGPU-Sim PTX: reconvergence points for _Z9normalize6float3...
GPGPU-Sim PTX: ... end of reconvergence points for _Z9normalize6float3
GPGPU-Sim PTX: ... done pre-decoding instructions for '_Z9normalize6float3'.
GPGPU-Sim PTX: instruction assembly for function '_Z18intersectionSphere5Rayon6float3f'...   done.
GPGPU-Sim PTX: finding reconvergence points for '_Z18intersectionSphere5Rayon6float3f'...
GPGPU-Sim PTX: Finding dominators for '_Z18intersectionSphere5Rayon6float3f'...
GPGPU-Sim PTX: Finding immediate dominators for '_Z18intersectionSphere5Rayon6float3f'...
GPGPU-Sim PTX: Finding postdominators for '_Z18intersectionSphere5Rayon6float3f'...
GPGPU-Sim PTX: Finding immediate postdominators for '_Z18intersectionSphere5Rayon6float3f'...
GPGPU-Sim PTX: pre-decoding instructions for '_Z18intersectionSphere5Rayon6float3f'...
GPGPU-Sim PTX: reconvergence points for _Z18intersectionSphere5Rayon6float3f...
GPGPU-Sim PTX:  1 (potential) branch divergence @  PC=0x250 (_1.ptx:173) @%p2 bra $Lt_2_3074;
GPGPU-Sim PTX:    immediate post dominator      @  PC=0x2c0 (_1.ptx:193) mov.f32 %f39, %f32;
GPGPU-Sim PTX:  2 (potential) branch divergence @  PC=0x260 (_1.ptx:175) bra.uni $Lt_2_2818;
GPGPU-Sim PTX:    immediate post dominator      @  PC=0x2c0 (_1.ptx:193) mov.f32 %f39, %f32;
GPGPU-Sim PTX:  3 (potential) branch divergence @  PC=0x280 (_1.ptx:180) @!%p3 bra $Lt_2_3586;
GPGPU-Sim PTX:    immediate post dominator      @  PC=0x2c0 (_1.ptx:193) mov.f32 %f39, %f32;
GPGPU-Sim PTX:  4 (potential) branch divergence @  PC=0x290 (_1.ptx:182) bra.uni $Lt_2_3330;
GPGPU-Sim PTX:    immediate post dominator      @  PC=0x2c0 (_1.ptx:193) mov.f32 %f39, %f32;
GPGPU-Sim PTX: ... end of reconvergence points for _Z18intersectionSphere5Rayon6float3f
GPGPU-Sim PTX: ... done pre-decoding instructions for '_Z18intersectionSphere5Rayon6float3f'.
GPGPU-Sim PTX: instruction assembly for function '_Z16intersectionPlan5Rayon6float3S0_'...   done.
GPGPU-Sim PTX: finding reconvergence points for '_Z16intersectionPlan5Rayon6float3S0_'...
GPGPU-Sim PTX: Finding dominators for '_Z16intersectionPlan5Rayon6float3S0_'...
GPGPU-Sim PTX: Finding immediate dominators for '_Z16intersectionPlan5Rayon6float3S0_'...
GPGPU-Sim PTX: Finding postdominators for '_Z16intersectionPlan5Rayon6float3S0_'...
GPGPU-Sim PTX: Finding immediate postdominators for '_Z16intersectionPlan5Rayon6float3S0_'...
GPGPU-Sim PTX: pre-decoding instructions for '_Z16intersectionPlan5Rayon6float3S0_'...
GPGPU-Sim PTX: reconvergence points for _Z16intersectionPlan5Rayon6float3S0_...
GPGPU-Sim PTX:  1 (potential) branch divergence @  PC=0x320 (_1.ptx:214) @!%p1 bra $Lt_3_2050;
GPGPU-Sim PTX:    immediate post dominator      @  PC=0x368 (_1.ptx:227) mov.f32 %f14, %f9;
GPGPU-Sim PTX:  2 (potential) branch divergence @  PC=0x330 (_1.ptx:216) bra.uni $Lt_3_1794;
GPGPU-Sim PTX:    immediate post dominator      @  PC=0x368 (_1.ptx:227) mov.f32 %f14, %f9;
GPGPU-Sim PTX: ... end of reconvergence points for _Z16intersectionPlan5Rayon6float3S0_
GPGPU-Sim PTX: ... done pre-decoding instructions for '_Z16intersectionPlan5Rayon6float3S0_'.
GPGPU-Sim PTX: instruction assembly for function '_Z10getNormale6float3S_'...   done.
GPGPU-Sim PTX: finding reconvergence points for '_Z10getNormale6float3S_'...
GPGPU-Sim PTX: Finding dominators for '_Z10getNormale6float3S_'...
GPGPU-Sim PTX: Finding immediate dominators for '_Z10getNormale6float3S_'...
GPGPU-Sim PTX: Finding postdominators for '_Z10getNormale6float3S_'...
GPGPU-Sim PTX: Finding immediate postdominators for '_Z10getNormale6float3S_'...
GPGPU-Sim PTX: pre-decoding instructions for '_Z10getNormale6float3S_'...
GPGPU-Sim PTX: reconvergence points for _Z10getNormale6float3S_...
GPGPU-Sim PTX: ... end of reconvergence points for _Z10getNormale6float3S_
GPGPU-Sim PTX: ... done pre-decoding instructions for '_Z10getNormale6float3S_'.
GPGPU-Sim PTX: instruction assembly for function '_Z11getNormaleP6float3'...   done.
GPGPU-Sim PTX: finding reconvergence points for '_Z11getNormaleP6float3'...
GPGPU-Sim PTX: Finding dominators for '_Z11getNormaleP6float3'...
GPGPU-Sim PTX: Finding immediate dominators for '_Z11getNormaleP6float3'...
GPGPU-Sim PTX: Finding postdominators for '_Z11getNormaleP6float3'...
GPGPU-Sim PTX: Finding immediate postdominators for '_Z11getNormaleP6float3'...
GPGPU-Sim PTX: pre-decoding instructions for '_Z11getNormaleP6float3'...
GPGPU-Sim PTX: reconvergence points for _Z11getNormaleP6float3...
GPGPU-Sim PTX: ... end of reconvergence points for _Z11getNormaleP6float3
GPGPU-Sim PTX: ... done pre-decoding instructions for '_Z11getNormaleP6float3'.
GPGPU-Sim PTX: instruction assembly for function '_Z14rgbaFloatToInt6float4'...   done.
GPGPU-Sim PTX: finding reconvergence points for '_Z14rgbaFloatToInt6float4'...
GPGPU-Sim PTX: Finding dominators for '_Z14rgbaFloatToInt6float4'...
GPGPU-Sim PTX: Finding immediate dominators for '_Z14rgbaFloatToInt6float4'...
GPGPU-Sim PTX: Finding postdominators for '_Z14rgbaFloatToInt6float4'...
GPGPU-Sim PTX: Finding immediate postdominators for '_Z14rgbaFloatToInt6float4'...
GPGPU-Sim PTX: pre-decoding instructions for '_Z14rgbaFloatToInt6float4'...
GPGPU-Sim PTX: reconvergence points for _Z14rgbaFloatToInt6float4...
GPGPU-Sim PTX: ... end of reconvergence points for _Z14rgbaFloatToInt6float4
GPGPU-Sim PTX: ... done pre-decoding instructions for '_Z14rgbaFloatToInt6float4'.
GPGPU-Sim PTX: allocating global region for "cnode" from 0x100 to 0x1a0 (global memory space)
GPGPU-Sim PTX: instruction assembly for function '_Z12notShadowRayP4Node6float3S1_f'...   done.
GPGPU-Sim PTX: finding reconvergence points for '_Z12notShadowRayP4Node6float3S1_f'...
GPGPU-Sim PTX: Finding dominators for '_Z12notShadowRayP4Node6float3S1_f'...
GPGPU-Sim PTX: Finding immediate dominators for '_Z12notShadowRayP4Node6float3S1_f'...
GPGPU-Sim PTX: Finding postdominators for '_Z12notShadowRayP4Node6float3S1_f'...
GPGPU-Sim PTX: Finding immediate postdominators for '_Z12notShadowRayP4Node6float3S1_f'...
GPGPU-Sim PTX: pre-decoding instructions for '_Z12notShadowRayP4Node6float3S1_f'...
GPGPU-Sim PTX: reconvergence points for _Z12notShadowRayP4Node6float3S1_f...
GPGPU-Sim PTX:  1 (potential) branch divergence @  PC=0x638 (_1.ptx:364) @%p1 bra $Lt_7_8450;
GPGPU-Sim PTX:    immediate post dominator      @  PC=0x828 (_1.ptx:441) mov.f32 %f58, 0f00000000;    // 0
GPGPU-Sim PTX:  2 (potential) branch divergence @  PC=0x658 (_1.ptx:369) @!%p2 bra $Lt_7_8962;
GPGPU-Sim PTX:    immediate post dominator      @  PC=0x6b8 (_1.ptx:385) mov.f32 %f28, %f20;
GPGPU-Sim PTX:  3 (potential) branch divergence @  PC=0x668 (_1.ptx:371) bra.uni $Lt_7_8706;
GPGPU-Sim PTX:    immediate post dominator      @  PC=0x6b8 (_1.ptx:385) mov.f32 %f28, %f20;
GPGPU-Sim PTX:  4 (potential) branch divergence @  PC=0x6c0 (_1.ptx:386) bra.uni $Lt_7_8194;
GPGPU-Sim PTX:    immediate post dominator      @  PC=0x828 (_1.ptx:441) mov.f32 %f58, 0f00000000;    // 0
GPGPU-Sim PTX:  5 (potential) branch divergence @  PC=0x7b0 (_1.ptx:418) @%p5 bra $Lt_7_9474;
GPGPU-Sim PTX:    immediate post dominator      @  PC=0x820 (_1.ptx:438) mov.f32 %f28, %f51;
GPGPU-Sim PTX:  6 (potential) branch divergence @  PC=0x7c0 (_1.ptx:420) bra.uni $Lt_7_9730;
GPGPU-Sim PTX:    immediate post dominator      @  PC=0x820 (_1.ptx:438) mov.f32 %f28, %f51;
GPGPU-Sim PTX:  7 (potential) branch divergence @  PC=0x7e0 (_1.ptx:425) @!%p6 bra $Lt_7_9986;
GPGPU-Sim PTX:    immediate post dominator      @  PC=0x820 (_1.ptx:438) mov.f32 %f28, %f51;
GPGPU-Sim PTX:  8 (potential) branch divergence @  PC=0x7f0 (_1.ptx:427) bra.uni $Lt_7_9730;
GPGPU-Sim PTX:    immediate post dominator      @  PC=0x820 (_1.ptx:438) mov.f32 %f28, %f51;
GPGPU-Sim PTX:  9 (potential) branch divergence @  PC=0x838 (_1.ptx:443) @!%p7 bra $Lt_7_10242;
GPGPU-Sim PTX:    immediate post dominator      @  PC=0x8e8 (_1.ptx:468) add.s32 %r1, %r1, 1;
GPGPU-Sim PTX: 10 (potential) branch divergence @  PC=0x8d8 (_1.ptx:463) @!%p8 bra $Lt_7_10242;
GPGPU-Sim PTX:    immediate post dominator      @  PC=0x8e8 (_1.ptx:468) add.s32 %r1, %r1, 1;
GPGPU-Sim PTX: 11 (potential) branch divergence @  PC=0x908 (_1.ptx:472) @%p9 bra $Lt_7_10754;
GPGPU-Sim PTX:    immediate post dominator      @  PC=0x960 (_1.ptx:486) selp.s32 %r10, 1, 0, %p11;
GPGPU-Sim PTX: 12 (potential) branch divergence @  PC=0x930 (_1.ptx:477) @%p10 bra $L_7_7170;
GPGPU-Sim PTX:    immediate post dominator      @  PC=0x960 (_1.ptx:486) selp.s32 %r10, 1, 0, %p11;
GPGPU-Sim PTX: 13 (potential) branch divergence @  PC=0x938 (_1.ptx:478) bra.uni $L_7_7938;
GPGPU-Sim PTX:    immediate post dominator      @  PC=0x960 (_1.ptx:486) selp.s32 %r10, 1, 0, %p11;
GPGPU-Sim PTX: ... end of reconvergence points for _Z12notShadowRayP4Node6float3S1_f
GPGPU-Sim PTX: ... done pre-decoding instructions for '_Z12notShadowRayP4Node6float3S1_f'.
GPGPU-Sim PTX: instruction assembly for function '_Z15float2int_pow20f'...   done.
GPGPU-Sim PTX: finding reconvergence points for '_Z15float2int_pow20f'...
GPGPU-Sim PTX: Finding dominators for '_Z15float2int_pow20f'...
GPGPU-Sim PTX: Finding immediate dominators for '_Z15float2int_pow20f'...
GPGPU-Sim PTX: Finding postdominators for '_Z15float2int_pow20f'...
GPGPU-Sim PTX: Finding immediate postdominators for '_Z15float2int_pow20f'...
GPGPU-Sim PTX: pre-decoding instructions for '_Z15float2int_pow20f'...
GPGPU-Sim PTX: reconvergence points for _Z15float2int_pow20f...
GPGPU-Sim PTX: ... end of reconvergence points for _Z15float2int_pow20f
GPGPU-Sim PTX: ... done pre-decoding instructions for '_Z15float2int_pow20f'.
GPGPU-Sim PTX: instruction assembly for function '_Z15float2int_pow50f'...   done.
GPGPU-Sim PTX: finding reconvergence points for '_Z15float2int_pow50f'...
GPGPU-Sim PTX: Finding dominators for '_Z15float2int_pow50f'...
GPGPU-Sim PTX: Finding immediate dominators for '_Z15float2int_pow50f'...
GPGPU-Sim PTX: Finding postdominators for '_Z15float2int_pow50f'...
GPGPU-Sim PTX: Finding immediate postdominators for '_Z15float2int_pow50f'...
GPGPU-Sim PTX: pre-decoding instructions for '_Z15float2int_pow50f'...
GPGPU-Sim PTX: reconvergence points for _Z15float2int_pow50f...
GPGPU-Sim PTX: ... end of reconvergence points for _Z15float2int_pow50f
GPGPU-Sim PTX: ... done pre-decoding instructions for '_Z15float2int_pow50f'.
GPGPU-Sim PTX: allocating constant region for "MView" from 0x200 to 0x230 (global memory space) 1
GPGPU-Sim PTX: allocating stack frame region for .local "__cuda___cuda_local_var_35463_9_non_const_pile_32240" from 0x0 to 0x50
GPGPU-Sim PTX: instruction assembly for function '_Z6renderPjP4Nodejjff'...   done.
GPGPU-Sim PTX: finding reconvergence points for '_Z6renderPjP4Nodejjff'...
GPGPU-Sim PTX: Finding dominators for '_Z6renderPjP4Nodejjff'...
GPGPU-Sim PTX: Finding immediate dominators for '_Z6renderPjP4Nodejjff'...
GPGPU-Sim PTX: Finding postdominators for '_Z6renderPjP4Nodejjff'...
GPGPU-Sim PTX: Finding immediate postdominators for '_Z6renderPjP4Nodejjff'...
GPGPU-Sim PTX: pre-decoding instructions for '_Z6renderPjP4Nodejjff'...
GPGPU-Sim PTX: reconvergence points for _Z6renderPjP4Nodejjff...
GPGPU-Sim PTX:  1 (potential) branch divergence @  PC=0xdb0 (_1.ptx:663) @%p1 bra $Lt_10_44034;
GPGPU-Sim PTX:    immediate post dominator      @  PC=0x2370 (_1.ptx:1495) exit;
GPGPU-Sim PTX:  2 (potential) branch divergence @  PC=0x1028 (_1.ptx:751) @%p2 bra $Lt_10_45570;
GPGPU-Sim PTX:    immediate post dominator      @  PC=0x11b8 (_1.ptx:815) mov.f32 %f108, 0f00000000;   // 0
GPGPU-Sim PTX:  3 (potential) branch divergence @  PC=0x1048 (_1.ptx:756) @!%p3 bra $Lt_10_46082;
GPGPU-Sim PTX:    immediate post dominator      @  PC=0x1090 (_1.ptx:769) mov.f32 %f87, %f82;
GPGPU-Sim PTX:  4 (potential) branch divergence @  PC=0x1058 (_1.ptx:758) bra.uni $Lt_10_45826;
GPGPU-Sim PTX:    immediate post dominator      @  PC=0x1090 (_1.ptx:769) mov.f32 %f87, %f82;
GPGPU-Sim PTX:  5 (potential) branch divergence @  PC=0x1098 (_1.ptx:770) bra.uni $Lt_10_45314;
GPGPU-Sim PTX:    immediate post dominator      @  PC=0x11b8 (_1.ptx:815) mov.f32 %f108, 0f00000000;   // 0
GPGPU-Sim PTX:  6 (potential) branch divergence @  PC=0x1140 (_1.ptx:793) @%p6 bra $Lt_10_46594;
GPGPU-Sim PTX:    immediate post dominator      @  PC=0x11b0 (_1.ptx:813) mov.f32 %f87, %f101;
GPGPU-Sim PTX:  7 (potential) branch divergence @  PC=0x1150 (_1.ptx:795) bra.uni $Lt_10_46850;
GPGPU-Sim PTX:    immediate post dominator      @  PC=0x11b0 (_1.ptx:813) mov.f32 %f87, %f101;
GPGPU-Sim PTX:  8 (potential) branch divergence @  PC=0x1170 (_1.ptx:800) @!%p7 bra $Lt_10_47106;
GPGPU-Sim PTX:    immediate post dominator      @  PC=0x11b0 (_1.ptx:813) mov.f32 %f87, %f101;
GPGPU-Sim PTX:  9 (potential) branch divergence @  PC=0x1180 (_1.ptx:802) bra.uni $Lt_10_46850;
GPGPU-Sim PTX:    immediate post dominator      @  PC=0x11b0 (_1.ptx:813) mov.f32 %f87, %f101;
GPGPU-Sim PTX: 10 (potential) branch divergence @  PC=0x11f8 (_1.ptx:823) @%p8 bra $Lt_10_47362;
GPGPU-Sim PTX:    immediate post dominator      @  PC=0x1210 (_1.ptx:829) add.s32 %r25, %r25, 1;
GPGPU-Sim PTX: 11 (potential) branch divergence @  PC=0x1230 (_1.ptx:833) @%p9 bra $Lt_10_45058;
GPGPU-Sim PTX:    immediate post dominator      @  PC=0x1238 (_1.ptx:834) mov.f32 %f109, 0f00000000;   // 0
GPGPU-Sim PTX: 12 (potential) branch divergence @  PC=0x1280 (_1.ptx:843) @%p10 bra $Lt_10_48130;
GPGPU-Sim PTX:    immediate post dominator      @  PC=0x2140 (_1.ptx:1416) add.s32 %r23, %r23, 1;
GPGPU-Sim PTX: 13 (potential) branch divergence @  PC=0x1330 (_1.ptx:868) @%p11 bra $Lt_10_48898;
GPGPU-Sim PTX:    immediate post dominator      @  PC=0x13b8 (_1.ptx:888) sub.f32 %f136, %f21, %f119;
GPGPU-Sim PTX: 14 (potential) branch divergence @  PC=0x1350 (_1.ptx:873) bra.uni $Lt_10_48642;
GPGPU-Sim PTX:    immediate post dominator      @  PC=0x13b8 (_1.ptx:888) sub.f32 %f136, %f21, %f119;
GPGPU-Sim PTX: 15 (potential) branch divergence @  PC=0x1430 (_1.ptx:903) @!%p12 bra $Lt_10_49410;
GPGPU-Sim PTX:    immediate post dominator      @  PC=0x1470 (_1.ptx:915) mov.f32 %f153, 0f3d4ccccd;   // 0.05
GPGPU-Sim PTX: 16 (potential) branch divergence @  PC=0x1450 (_1.ptx:908) bra.uni $Lt_10_49154;
GPGPU-Sim PTX:    immediate post dominator      @  PC=0x1470 (_1.ptx:915) mov.f32 %f153, 0f3d4ccccd;   // 0.05
GPGPU-Sim PTX: 17 (potential) branch divergence @  PC=0x1578 (_1.ptx:949) @!%p13 bra $Lt_10_58114;
GPGPU-Sim PTX:    immediate post dominator      @  PC=0x2080 (_1.ptx:1388) add.f32 %f399, %f126, %f126;
GPGPU-Sim PTX: 18 (potential) branch divergence @  PC=0x15c0 (_1.ptx:961) @%p14 bra $Lt_10_49922;
GPGPU-Sim PTX:    immediate post dominator      @  PC=0x17b0 (_1.ptx:1039) mov.f32 %f221, 0f00000000;   // 0
GPGPU-Sim PTX: 19 (potential) branch divergence @  PC=0x15e0 (_1.ptx:966) @!%p15 bra $Lt_10_50434;
GPGPU-Sim PTX:    immediate post dominator      @  PC=0x1638 (_1.ptx:982) mov.f32 %f190, %f183;
GPGPU-Sim PTX: 20 (potential) branch divergence @  PC=0x15f0 (_1.ptx:968) bra.uni $Lt_10_50178;
GPGPU-Sim PTX:    immediate post dominator      @  PC=0x1638 (_1.ptx:982) mov.f32 %f190, %f183;
GPGPU-Sim PTX: 21 (potential) branch divergence @  PC=0x1640 (_1.ptx:983) bra.uni $Lt_10_49666;
GPGPU-Sim PTX:    immediate post dominator      @  PC=0x17b0 (_1.ptx:1039) mov.f32 %f221, 0f00000000;   // 0
GPGPU-Sim PTX: 22 (potential) branch divergence @  PC=0x1738 (_1.ptx:1016) @%p18 bra $Lt_10_50946;
GPGPU-Sim PTX:    immediate post dominator      @  PC=0x17a8 (_1.ptx:1036) mov.f32 %f190, %f214;
GPGPU-Sim PTX: 23 (potential) branch divergence @  PC=0x1748 (_1.ptx:1018) bra.uni $Lt_10_51202;
GPGPU-Sim PTX:    immediate post dominator      @  PC=0x17a8 (_1.ptx:1036) mov.f32 %f190, %f214;
GPGPU-Sim PTX: 24 (potential) branch divergence @  PC=0x1768 (_1.ptx:1023) @!%p19 bra $Lt_10_51458;
GPGPU-Sim PTX:    immediate post dominator      @  PC=0x17a8 (_1.ptx:1036) mov.f32 %f190, %f214;
GPGPU-Sim PTX: 25 (potential) branch divergence @  PC=0x1778 (_1.ptx:1025) bra.uni $Lt_10_51202;
GPGPU-Sim PTX:    immediate post dominator      @  PC=0x17a8 (_1.ptx:1036) mov.f32 %f190, %f214;
GPGPU-Sim PTX: 26 (potential) branch divergence @  PC=0x17c0 (_1.ptx:1041) @!%p20 bra $Lt_10_58370;
GPGPU-Sim PTX:    immediate post dominator      @  PC=0x1828 (_1.ptx:1057) add.s32 %r50, %r50, 1;
GPGPU-Sim PTX: 27 (potential) branch divergence @  PC=0x1818 (_1.ptx:1052) @!%p21 bra $Lt_10_58370;
GPGPU-Sim PTX:    immediate post dominator      @  PC=0x1828 (_1.ptx:1057) add.s32 %r50, %r50, 1;
GPGPU-Sim PTX: 28 (potential) branch divergence @  PC=0x1848 (_1.ptx:1061) @%p22 bra $Lt_10_58882;
GPGPU-Sim PTX:    immediate post dominator      @  PC=0x1880 (_1.ptx:1071) @!%p23 bra $Lt_10_58114;
GPGPU-Sim PTX: 29 (potential) branch divergence @  PC=0x1860 (_1.ptx:1064) @%p23 bra $L_10_42498;
GPGPU-Sim PTX:    immediate post dominator      @  PC=0x1880 (_1.ptx:1071) @!%p23 bra $Lt_10_58114;
GPGPU-Sim PTX: 30 (potential) branch divergence @  PC=0x1868 (_1.ptx:1065) bra.uni $L_10_43266;
GPGPU-Sim PTX:    immediate post dominator      @  PC=0x1880 (_1.ptx:1071) @!%p23 bra $Lt_10_58114;
GPGPU-Sim PTX: 31 (potential) branch divergence @  PC=0x1880 (_1.ptx:1071) @!%p23 bra $Lt_10_58114;
GPGPU-Sim PTX:    immediate post dominator      @  PC=0x2080 (_1.ptx:1388) add.f32 %f399, %f126, %f126;
GPGPU-Sim PTX: 32 (potential) branch divergence @  PC=0x19c8 (_1.ptx:1115) @!%p24 bra $Lt_10_51714;
GPGPU-Sim PTX:    immediate post dominator      @  PC=0x2040 (_1.ptx:1375) mov.f32 %f394, 0f3f4ccccd;   // 0.8
GPGPU-Sim PTX: 33 (potential) branch divergence @  PC=0x19d8 (_1.ptx:1118) bra.uni $LDWendi___isnanf_192_1;
GPGPU-Sim PTX:    immediate post dominator      @  PC=0x2040 (_1.ptx:1375) mov.f32 %f394, 0f3f4ccccd;   // 0.8
GPGPU-Sim PTX: 34 (potential) branch divergence @  PC=0x19f8 (_1.ptx:1124) @!%p25 bra $Lt_10_7682;
GPGPU-Sim PTX:    immediate post dominator      @  PC=0x2040 (_1.ptx:1375) mov.f32 %f394, 0f3f4ccccd;   // 0.8
GPGPU-Sim PTX: 35 (potential) branch divergence @  PC=0x1a00 (_1.ptx:1125) bra.uni $Lt_10_7938;
GPGPU-Sim PTX:    immediate post dominator      @  PC=0x1a20 (_1.ptx:1133) mov.f32 %f272, 0f7f800000;   // ((1.0F)/(0.0F))
GPGPU-Sim PTX: 36 (potential) branch divergence @  PC=0x1a18 (_1.ptx:1130) bra.uni $LDWendi___isnanf_192_1;
GPGPU-Sim PTX:    immediate post dominator      @  PC=0x2040 (_1.ptx:1375) mov.f32 %f394, 0f3f4ccccd;   // 0.8
GPGPU-Sim PTX: 37 (potential) branch divergence @  PC=0x1a30 (_1.ptx:1135) @!%p26 bra $Lt_10_52226;
GPGPU-Sim PTX:    immediate post dominator      @  PC=0x2040 (_1.ptx:1375) mov.f32 %f394, 0f3f4ccccd;   // 0.8
GPGPU-Sim PTX: 38 (potential) branch divergence @  PC=0x1a40 (_1.ptx:1138) bra.uni $LDWendi___isnanf_192_1;
GPGPU-Sim PTX:    immediate post dominator      @  PC=0x2040 (_1.ptx:1375) mov.f32 %f394, 0f3f4ccccd;   // 0.8
GPGPU-Sim PTX: 39 (potential) branch divergence @  PC=0x1a58 (_1.ptx:1142) @!%p27 bra $Lt_10_52738;
GPGPU-Sim PTX:    immediate post dominator      @  PC=0x2040 (_1.ptx:1375) mov.f32 %f394, 0f3f4ccccd;   // 0.8
GPGPU-Sim PTX: 40 (potential) branch divergence @  PC=0x1ab8 (_1.ptx:1155) bra.uni $LDWendi___isnanf_192_1;
GPGPU-Sim PTX:    immediate post dominator      @  PC=0x2040 (_1.ptx:1375) mov.f32 %f394, 0f3f4ccccd;   // 0.8
GPGPU-Sim PTX: 41 (potential) branch divergence @  PC=0x1ad0 (_1.ptx:1159) @!%p29 bra $Lt_10_53250;
GPGPU-Sim PTX:    immediate post dominator      @  PC=0x2040 (_1.ptx:1375) mov.f32 %f394, 0f3f4ccccd;   // 0.8
GPGPU-Sim PTX: 42 (potential) branch divergence @  PC=0x1b20 (_1.ptx:1170) @!%p30 bra $Lt_10_53762;
GPGPU-Sim PTX:    immediate post dominator      @  PC=0x1b40 (_1.ptx:1177) mov.f32 %f268, %f284;
GPGPU-Sim PTX: 43 (potential) branch divergence @  PC=0x1b48 (_1.ptx:1178) bra.uni $LDWendi___isnanf_192_1;
GPGPU-Sim PTX:    immediate post dominator      @  PC=0x2040 (_1.ptx:1375) mov.f32 %f394, 0f3f4ccccd;   // 0.8
GPGPU-Sim PTX: 44 (potential) branch divergence @  PC=0x1b60 (_1.ptx:1183) @!%p31 bra $Lt_10_59394;
GPGPU-Sim PTX:    immediate post dominator      @  PC=0x2040 (_1.ptx:1375) mov.f32 %f394, 0f3f4ccccd;   // 0.8
GPGPU-Sim PTX: 45 (potential) branch divergence @  PC=0x1b88 (_1.ptx:1188) @!%p32 bra $Lt_10_59394;
GPGPU-Sim PTX:    immediate post dominator      @  PC=0x2040 (_1.ptx:1375) mov.f32 %f394, 0f3f4ccccd;   // 0.8
GPGPU-Sim PTX: 46 (potential) branch divergence @  PC=0x1ba0 (_1.ptx:1192) bra.uni $LDWendi___isnanf_192_1;
GPGPU-Sim PTX:    immediate post dominator      @  PC=0x2040 (_1.ptx:1375) mov.f32 %f394, 0f3f4ccccd;   // 0.8
GPGPU-Sim PTX: 47 (potential) branch divergence @  PC=0x1bd8 (_1.ptx:1202) @%p33 bra $Lt_10_54530;
GPGPU-Sim PTX:    immediate post dominator      @  PC=0x1c20 (_1.ptx:1216) sub.s32 %r64, %r64, 127;
GPGPU-Sim PTX: 48 (potential) branch divergence @  PC=0x1c10 (_1.ptx:1211) bra.uni $Lt_10_54274;
GPGPU-Sim PTX:    immediate post dominator      @  PC=0x1c20 (_1.ptx:1216) sub.s32 %r64, %r64, 127;
GPGPU-Sim PTX: 49 (potential) branch divergence @  PC=0x1c58 (_1.ptx:1224) @!%p34 bra $Lt_10_54786;
GPGPU-Sim PTX:    immediate post dominator      @  PC=0x1c78 (_1.ptx:1232) mov.f32 %f302, 0fbf800000;   // -1
GPGPU-Sim PTX: 50 (potential) branch divergence @  PC=0x1eb0 (_1.ptx:1312) @%p35 bra $Lt_10_55298;
GPGPU-Sim PTX:    immediate post dominator      @  PC=0x1ed8 (_1.ptx:1321) mov.f32 %f367, %f365;
GPGPU-Sim PTX: 51 (potential) branch divergence @  PC=0x1f98 (_1.ptx:1346) @!%p38 bra $Lt_10_55810;
GPGPU-Sim PTX:    immediate post dominator      @  PC=0x1fa8 (_1.ptx:1351) mov.f32 %f284, %f386;
GPGPU-Sim PTX: 52 (potential) branch divergence @  PC=0x2018 (_1.ptx:1365) @%p39 bra $Lt_10_56322;
GPGPU-Sim PTX:    immediate post dominator      @  PC=0x2038 (_1.ptx:1372) mov.f32 %f268, %f284;
GPGPU-Sim PTX: 53 (potential) branch divergence @  PC=0x2158 (_1.ptx:1419) @%p40 bra $L_10_42242;
GPGPU-Sim PTX:    immediate post dominator      @  PC=0x2170 (_1.ptx:1424) sub.s32 %r86, %r24, 1;
GPGPU-Sim PTX: 54 (potential) branch divergence @  PC=0x2168 (_1.ptx:1421) @%p41 bra $L_10_41474;
GPGPU-Sim PTX:    immediate post dominator      @  PC=0x2170 (_1.ptx:1424) sub.s32 %r86, %r24, 1;
GPGPU-Sim PTX: 55 (potential) branch divergence @  PC=0x2190 (_1.ptx:1428) @%p42 bra $Lt_10_56834;
GPGPU-Sim PTX:    immediate post dominator      @  PC=0x2288 (_1.ptx:1464) ld.global.u32 %r92, [%rd4+0];
GPGPU-Sim PTX: 56 (potential) branch divergence @  PC=0x2280 (_1.ptx:1461) @%p43 bra $Lt_10_57346;
GPGPU-Sim PTX:    immediate post dominator      @  PC=0x2288 (_1.ptx:1464) ld.global.u32 %r92, [%rd4+0];
GPGPU-Sim PTX: ... end of reconvergence points for _Z6renderPjP4Nodejjff
GPGPU-Sim PTX: ... done pre-decoding instructions for '_Z6renderPjP4Nodejjff'.
GPGPU-Sim PTX: instruction assembly for function '_ZN4dim3C1Ejjj'...   done.
GPGPU-Sim PTX: finding reconvergence points for '_ZN4dim3C1Ejjj'...
GPGPU-Sim PTX: Finding dominators for '_ZN4dim3C1Ejjj'...
GPGPU-Sim PTX: Finding immediate dominators for '_ZN4dim3C1Ejjj'...
GPGPU-Sim PTX: Finding postdominators for '_ZN4dim3C1Ejjj'...
GPGPU-Sim PTX: Finding immediate postdominators for '_ZN4dim3C1Ejjj'...
GPGPU-Sim PTX: pre-decoding instructions for '_ZN4dim3C1Ejjj'...
GPGPU-Sim PTX: reconvergence points for _ZN4dim3C1Ejjj...
GPGPU-Sim PTX: ... end of reconvergence points for _ZN4dim3C1Ejjj
GPGPU-Sim PTX: ... done pre-decoding instructions for '_ZN4dim3C1Ejjj'.
GPGPU-Sim PTX: finished parsing EMBEDDED .ptx file _1.ptx
Adding _cuobjdump_1.ptx with cubin handle 1
GPGPU-Sim PTX: extracting embedded .ptx to temporary file "_ptx_F9vXsn"
Running: cat _ptx_F9vXsn | sed 's/.version 1.5/.version 1.4/' | sed 's/, texmode_independent//' | sed 's/\(\.extern \.const\[1\] .b8 \w\+\)\[\]/\1\[1\]/' | sed 's/const\[.\]/const\[0\]/g' > _ptx2_GRVJwC
GPGPU-Sim PTX: generating ptxinfo using "$CUDA_INSTALL_PATH/bin/ptxas --gpu-name=sm_20 -v _ptx2_GRVJwC --output-file  /dev/null 2> _ptx_F9vXsninfo"
GPGPU-Sim PTX: Kernel '_Z6renderPjP4Nodejjff' : regs=45, lmem=4, smem=0, cmem=180
GPGPU-Sim PTX: removing ptxinfo using "rm -f _ptx_F9vXsn _ptx2_GRVJwC _ptx_F9vXsninfo"
GPGPU-Sim PTX: loading globals with explicit initializers... 
GPGPU-Sim PTX: finished loading globals (0 bytes total).
GPGPU-Sim PTX: loading constants with explicit initializers...  done.
GPGPU-Sim PTX: __cudaRegisterVar: hostVar = 0x62fda0; deviceAddress = MView; deviceName = MView
GPGPU-Sim PTX: __cudaRegisterVar: Registering const memory space of 48 bytes
GPGPU-Sim PTX registering constant MView (48 bytes) to name mapping
GPGPU-Sim PTX: __cudaRegisterVar: hostVar = 0x62fde0; deviceAddress = cnode; deviceName = cnode
GPGPU-Sim PTX: __cudaRegisterVar: Registering const memory space of 160 bytes
GPGPU-Sim PTX registering constant cnode (160 bytes) to name mapping
GPGPU-Sim PTX: cudaMemcpyToSymbol: symbol = 0x62fde0
GPGPU-Sim PTX: starting gpgpu_ptx_sim_memcpy_symbol with hostVar 0x0x62fde0
GPGPU-Sim PTX: gpgpu_ptx_sim_memcpy_symbol: Found PTX symbol w/ hostVar=0x62fde0
GPGPU-Sim PTX: gpgpu_ptx_sim_memcpy_symbol: copying const memory 160 bytes  to  symbol cnode+0 @0x100 ...
GPGPU-Sim PTX: cudaMemcpyToSymbol: symbol = 0x62fda0
GPGPU-Sim PTX: starting gpgpu_ptx_sim_memcpy_symbol with hostVar 0x0x62fda0
GPGPU-Sim PTX: gpgpu_ptx_sim_memcpy_symbol: Found PTX symbol w/ hostVar=0x62fda0
GPGPU-Sim PTX: gpgpu_ptx_sim_memcpy_symbol: copying const memory 48 bytes  to  symbol MView+0 @0x200 ...

GPGPU-Sim PTX: cudaLaunch for 0x0x40ce13 (mode=performance simulation) on stream 0
GPGPU-Sim PTX: pushing kernel '_Z6renderPjP4Nodejjff' to stream 0, gridDim= (16,32,1) blockDim = (16,8,1) 
kernel '_Z6renderPjP4Nodejjff' transfer to GPU hardware scheduler
GPGPU-Sim uArch: Shader 1 bind to kernel 1 '_Z6renderPjP4Nodejjff'
GPGPU-Sim uArch: CTA/core = 5, limited by: regs
GPGPU-Sim uArch: core:  1, cta: 0 initialized @(1,0)
GPGPU-Sim uArch: Shader 2 bind to kernel 1 '_Z6renderPjP4Nodejjff'
GPGPU-Sim uArch: core:  2, cta: 0 initialized @(1,0)
GPGPU-Sim uArch: Shader 3 bind to kernel 1 '_Z6renderPjP4Nodejjff'
GPGPU-Sim uArch: core:  3, cta: 0 initialized @(1,0)
GPGPU-Sim uArch: Shader 4 bind to kernel 1 '_Z6renderPjP4Nodejjff'
GPGPU-Sim uArch: core:  4, cta: 0 initialized @(1,0)
GPGPU-Sim uArch: Shader 5 bind to kernel 1 '_Z6renderPjP4Nodejjff'
GPGPU-Sim uArch: core:  5, cta: 0 initialized @(1,0)
GPGPU-Sim uArch: Shader 6 bind to kernel 1 '_Z6renderPjP4Nodejjff'
GPGPU-Sim uArch: core:  6, cta: 0 initialized @(1,0)
GPGPU-Sim uArch: Shader 7 bind to kernel 1 '_Z6renderPjP4Nodejjff'
GPGPU-Sim uArch: core:  7, cta: 0 initialized @(1,0)
GPGPU-Sim uArch: Shader 8 bind to kernel 1 '_Z6renderPjP4Nodejjff'
GPGPU-Sim uArch: core:  8, cta: 0 initialized @(1,0)
GPGPU-Sim uArch: Shader 9 bind to kernel 1 '_Z6renderPjP4Nodejjff'
GPGPU-Sim uArch: core:  9, cta: 0 initialized @(1,0)
GPGPU-Sim uArch: Shader 10 bind to kernel 1 '_Z6renderPjP4Nodejjff'
GPGPU-Sim uArch: core: 10, cta: 0 initialized @(1,0)
GPGPU-Sim uArch: Shader 11 bind to kernel 1 '_Z6renderPjP4Nodejjff'
GPGPU-Sim uArch: core: 11, cta: 0 initialized @(1,0)
GPGPU-Sim uArch: Shader 12 bind to kernel 1 '_Z6renderPjP4Nodejjff'
GPGPU-Sim uArch: core: 12, cta: 0 initialized @(1,0)
GPGPU-Sim uArch: Shader 13 bind to kernel 1 '_Z6renderPjP4Nodejjff'
GPGPU-Sim uArch: core: 13, cta: 0 initialized @(1,0)
GPGPU-Sim uArch: Shader 14 bind to kernel 1 '_Z6renderPjP4Nodejjff'
GPGPU-Sim uArch: core: 14, cta: 0 initialized @(1,0)
GPGPU-Sim uArch: Shader 0 bind to kernel 1 '_Z6renderPjP4Nodejjff'
GPGPU-Sim uArch: core:  0, cta: 0 initialized @(1,0)
GPGPU-Sim uArch: core:  1, cta: 1 initialized @(2,0)
GPGPU-Sim uArch: core:  2, cta: 1 initialized @(2,0)
GPGPU-Sim uArch: core:  3, cta: 1 initialized @(2,0)
GPGPU-Sim uArch: core:  4, cta: 1 initialized @(2,0)
GPGPU-Sim uArch: core:  5, cta: 1 initialized @(2,0)
GPGPU-Sim uArch: core:  6, cta: 1 initialized @(2,0)
GPGPU-Sim uArch: core:  7, cta: 1 initialized @(2,0)
GPGPU-Sim uArch: core:  8, cta: 1 initialized @(2,0)
GPGPU-Sim uArch: core:  9, cta: 1 initialized @(2,0)
GPGPU-Sim uArch: core: 10, cta: 1 initialized @(2,0)
GPGPU-Sim uArch: core: 11, cta: 1 initialized @(2,0)
GPGPU-Sim uArch: core: 12, cta: 1 initialized @(2,0)
GPGPU-Sim uArch: core: 13, cta: 1 initialized @(2,0)
GPGPU-Sim uArch: core: 14, cta: 1 initialized @(2,0)
GPGPU-Sim uArch: core:  0, cta: 1 initialized @(2,0)
GPGPU-Sim uArch: core:  1, cta: 2 initialized @(3,0)
GPGPU-Sim uArch: core:  2, cta: 2 initialized @(3,0)
GPGPU-Sim uArch: core:  3, cta: 2 initialized @(3,0)
GPGPU-Sim uArch: core:  4, cta: 2 initialized @(3,0)
GPGPU-Sim uArch: core:  5, cta: 2 initialized @(3,0)
GPGPU-Sim uArch: core:  6, cta: 2 initialized @(3,0)
GPGPU-Sim uArch: core:  7, cta: 2 initialized @(3,0)
GPGPU-Sim uArch: core:  8, cta: 2 initialized @(3,0)
GPGPU-Sim uArch: core:  9, cta: 2 initialized @(3,0)
GPGPU-Sim uArch: core: 10, cta: 2 initialized @(3,0)
GPGPU-Sim uArch: core: 11, cta: 2 initialized @(3,0)
GPGPU-Sim uArch: core: 12, cta: 2 initialized @(3,0)
GPGPU-Sim uArch: core: 13, cta: 2 initialized @(3,0)
GPGPU-Sim uArch: core: 14, cta: 2 initialized @(3,0)
GPGPU-Sim uArch: core:  0, cta: 2 initialized @(3,0)
GPGPU-Sim uArch: core:  1, cta: 3 initialized @(4,0)
GPGPU-Sim uArch: core:  2, cta: 3 initialized @(4,0)
GPGPU-Sim uArch: core:  3, cta: 3 initialized @(4,0)
GPGPU-Sim uArch: core:  4, cta: 3 initialized @(4,0)
GPGPU-Sim uArch: core:  5, cta: 3 initialized @(4,0)
GPGPU-Sim uArch: core:  6, cta: 3 initialized @(4,0)
GPGPU-Sim uArch: core:  7, cta: 3 initialized @(4,0)
GPGPU-Sim uArch: core:  8, cta: 3 initialized @(4,0)
GPGPU-Sim uArch: core:  9, cta: 3 initialized @(4,0)
GPGPU-Sim uArch: core: 10, cta: 3 initialized @(4,0)
GPGPU-Sim uArch: core: 11, cta: 3 initialized @(4,0)
GPGPU-Sim uArch: core: 12, cta: 3 initialized @(4,0)
GPGPU-Sim uArch: core: 13, cta: 3 initialized @(4,0)
GPGPU-Sim uArch: core: 14, cta: 3 initialized @(4,0)
GPGPU-Sim uArch: core:  0, cta: 3 initialized @(4,0)
GPGPU-Sim uArch: core:  1, cta: 4 initialized @(5,0)
GPGPU-Sim uArch: core:  2, cta: 4 initialized @(5,0)
GPGPU-Sim uArch: core:  3, cta: 4 initialized @(5,0)
GPGPU-Sim uArch: core:  4, cta: 4 initialized @(5,0)
GPGPU-Sim uArch: core:  5, cta: 4 initialized @(5,0)
GPGPU-Sim uArch: core:  6, cta: 4 initialized @(5,0)
GPGPU-Sim uArch: core:  7, cta: 4 initialized @(5,0)
GPGPU-Sim uArch: core:  8, cta: 4 initialized @(5,0)
GPGPU-Sim uArch: core:  9, cta: 4 initialized @(5,0)
GPGPU-Sim uArch: core: 10, cta: 4 initialized @(5,0)
GPGPU-Sim uArch: core: 11, cta: 4 initialized @(5,0)
GPGPU-Sim uArch: core: 12, cta: 4 initialized @(5,0)
GPGPU-Sim uArch: core: 13, cta: 4 initialized @(5,0)
GPGPU-Sim uArch: core: 14, cta: 4 initialized @(5,0)
GPGPU-Sim uArch: core:  0, cta: 4 initialized @(5,0)
GPGPU-Sim uArch: cycles simulated: 500  inst.: 36032 (ipc=72.1) sim_rate=18016 (inst/sec) elapsed = 0:0:00:02 / Sun Feb 28 21:42:19 2016
GPGPU-Sim PTX: 100000 instructions simulated : ctaid=(9,0,0) tid=(15,1,0)
GPGPU-Sim uArch: cycles simulated: 3000  inst.: 140608 (ipc=46.9) sim_rate=46869 (inst/sec) elapsed = 0:0:00:03 / Sun Feb 28 21:42:20 2016
GPGPU-Sim PTX: 200000 instructions simulated : ctaid=(2,0,0) tid=(15,5,0)
GPGPU-Sim PTX: 300000 instructions simulated : ctaid=(7,0,0) tid=(15,5,0)
GPGPU-Sim uArch: cycles simulated: 5000  inst.: 323424 (ipc=64.7) sim_rate=80856 (inst/sec) elapsed = 0:0:00:04 / Sun Feb 28 21:42:21 2016
GPGPU-Sim PTX: 400000 instructions simulated : ctaid=(4,0,0) tid=(15,1,0)
GPGPU-Sim PTX: 500000 instructions simulated : ctaid=(0,3,0) tid=(15,5,0)
GPGPU-Sim PTX: 600000 instructions simulated : ctaid=(1,1,0) tid=(15,5,0)
GPGPU-Sim uArch: cycles simulated: 6500  inst.: 606592 (ipc=93.3) sim_rate=121318 (inst/sec) elapsed = 0:0:00:05 / Sun Feb 28 21:42:22 2016
GPGPU-Sim PTX: 700000 instructions simulated : ctaid=(0,0,0) tid=(15,7,0)
GPGPU-Sim PTX: 800000 instructions simulated : ctaid=(2,3,0) tid=(15,7,0)
GPGPU-Sim PTX: 900000 instructions simulated : ctaid=(3,2,0) tid=(15,7,0)
GPGPU-Sim PTX: 1000000 instructions simulated : ctaid=(0,1,0) tid=(15,1,0)
GPGPU-Sim PTX: 1100000 instructions simulated : ctaid=(5,0,0) tid=(15,1,0)
GPGPU-Sim uArch: cycles simulated: 8500  inst.: 1119328 (ipc=131.7) sim_rate=186554 (inst/sec) elapsed = 0:0:00:06 / Sun Feb 28 21:42:23 2016
GPGPU-Sim PTX: 1200000 instructions simulated : ctaid=(14,3,0) tid=(15,7,0)
GPGPU-Sim PTX: 1300000 instructions simulated : ctaid=(15,3,0) tid=(15,7,0)
GPGPU-Sim PTX: 1400000 instructions simulated : ctaid=(12,3,0) tid=(15,7,0)
GPGPU-Sim PTX: 1500000 instructions simulated : ctaid=(11,2,0) tid=(15,3,0)
GPGPU-Sim uArch: cycles simulated: 9500  inst.: 1566624 (ipc=164.9) sim_rate=223803 (inst/sec) elapsed = 0:0:00:07 / Sun Feb 28 21:42:24 2016
GPGPU-Sim PTX: 1600000 instructions simulated : ctaid=(10,4,0) tid=(15,5,0)
GPGPU-Sim PTX: 1700000 instructions simulated : ctaid=(14,3,0) tid=(15,3,0)
GPGPU-Sim PTX: 1800000 instructions simulated : ctaid=(11,1,0) tid=(15,3,0)
GPGPU-Sim PTX: 1900000 instructions simulated : ctaid=(5,0,0) tid=(15,7,0)
GPGPU-Sim PTX: 2000000 instructions simulated : ctaid=(12,0,0) tid=(15,5,0)
GPGPU-Sim PTX: 2100000 instructions simulated : ctaid=(0,4,0) tid=(15,1,0)
GPGPU-Sim PTX: 2200000 instructions simulated : ctaid=(14,1,0) tid=(15,3,0)
GPGPU-Sim PTX: 2300000 instructions simulated : ctaid=(9,3,0) tid=(15,3,0)
GPGPU-Sim uArch: cycles simulated: 10500  inst.: 2273056 (ipc=216.5) sim_rate=284132 (inst/sec) elapsed = 0:0:00:08 / Sun Feb 28 21:42:25 2016
GPGPU-Sim PTX: 2400000 instructions simulated : ctaid=(15,2,0) tid=(15,7,0)
GPGPU-Sim PTX: 2500000 instructions simulated : ctaid=(7,3,0) tid=(15,3,0)
GPGPU-Sim PTX: 2600000 instructions simulated : ctaid=(9,2,0) tid=(15,5,0)
GPGPU-Sim PTX: 2700000 instructions simulated : ctaid=(7,3,0) tid=(15,1,0)
GPGPU-Sim uArch: cycles simulated: 11000  inst.: 2666272 (ipc=242.4) sim_rate=296252 (inst/sec) elapsed = 0:0:00:09 / Sun Feb 28 21:42:26 2016
GPGPU-Sim PTX: 2800000 instructions simulated : ctaid=(4,4,0) tid=(15,3,0)
GPGPU-Sim PTX: 2900000 instructions simulated : ctaid=(10,3,0) tid=(15,5,0)
GPGPU-Sim PTX: 3000000 instructions simulated : ctaid=(8,3,0) tid=(15,1,0)
GPGPU-Sim PTX: 3100000 instructions simulated : ctaid=(4,4,0) tid=(15,3,0)
GPGPU-Sim PTX: 3200000 instructions simulated : ctaid=(13,2,0) tid=(15,3,0)
GPGPU-Sim PTX: 3300000 instructions simulated : ctaid=(11,2,0) tid=(15,5,0)
GPGPU-Sim uArch: cycles simulated: 12000  inst.: 3268352 (ipc=272.4) sim_rate=326835 (inst/sec) elapsed = 0:0:00:10 / Sun Feb 28 21:42:27 2016
GPGPU-Sim PTX: 3400000 instructions simulated : ctaid=(13,3,0) tid=(15,1,0)
GPGPU-Sim PTX: 3500000 instructions simulated : ctaid=(14,0,0) tid=(15,7,0)
GPGPU-Sim PTX: 3600000 instructions simulated : ctaid=(7,0,0) tid=(15,7,0)
GPGPU-Sim PTX: 3700000 instructions simulated : ctaid=(5,3,0) tid=(15,1,0)
GPGPU-Sim PTX: 3800000 instructions simulated : ctaid=(15,3,0) tid=(15,5,0)
GPGPU-Sim uArch: cycles simulated: 13500  inst.: 3713952 (ipc=275.1) sim_rate=337632 (inst/sec) elapsed = 0:0:00:11 / Sun Feb 28 21:42:28 2016
GPGPU-Sim PTX: 3900000 instructions simulated : ctaid=(7,4,0) tid=(15,7,0)
GPGPU-Sim PTX: 4000000 instructions simulated : ctaid=(9,3,0) tid=(15,1,0)
GPGPU-Sim PTX: 4100000 instructions simulated : ctaid=(3,2,0) tid=(15,5,0)
GPGPU-Sim uArch: cycles simulated: 15500  inst.: 4041312 (ipc=260.7) sim_rate=336776 (inst/sec) elapsed = 0:0:00:12 / Sun Feb 28 21:42:29 2016
GPGPU-Sim PTX: 4200000 instructions simulated : ctaid=(10,1,0) tid=(15,1,0)
GPGPU-Sim PTX: 4300000 instructions simulated : ctaid=(7,1,0) tid=(15,5,0)
GPGPU-Sim PTX: 4400000 instructions simulated : ctaid=(0,1,0) tid=(15,7,0)
GPGPU-Sim PTX: 4500000 instructions simulated : ctaid=(15,3,0) tid=(15,3,0)
GPGPU-Sim PTX: 4600000 instructions simulated : ctaid=(1,0,0) tid=(9,2,0)
GPGPU-Sim PTX: 4700000 instructions simulated : ctaid=(12,0,0) tid=(1,2,0)
GPGPU-Sim PTX: 4800000 instructions simulated : ctaid=(4,3,0) tid=(15,4,0)
GPGPU-Sim uArch: cycles simulated: 17000  inst.: 4710960 (ipc=277.1) sim_rate=362381 (inst/sec) elapsed = 0:0:00:13 / Sun Feb 28 21:42:30 2016
GPGPU-Sim PTX: 4900000 instructions simulated : ctaid=(4,1,0) tid=(15,6,0)
GPGPU-Sim PTX: 5000000 instructions simulated : ctaid=(11,3,0) tid=(15,2,0)
GPGPU-Sim PTX: 5100000 instructions simulated : ctaid=(5,2,0) tid=(15,0,0)
GPGPU-Sim PTX: 5200000 instructions simulated : ctaid=(0,1,0) tid=(15,6,0)
GPGPU-Sim uArch: cycles simulated: 17500  inst.: 5107216 (ipc=291.8) sim_rate=364801 (inst/sec) elapsed = 0:0:00:14 / Sun Feb 28 21:42:31 2016
GPGPU-Sim PTX: 5300000 instructions simulated : ctaid=(0,2,0) tid=(15,0,0)
GPGPU-Sim PTX: 5400000 instructions simulated : ctaid=(8,0,0) tid=(8,0,0)
GPGPU-Sim PTX: 5500000 instructions simulated : ctaid=(8,4,0) tid=(11,5,0)
GPGPU-Sim PTX: 5600000 instructions simulated : ctaid=(1,2,0) tid=(12,3,0)
GPGPU-Sim PTX: 5700000 instructions simulated : ctaid=(3,0,0) tid=(7,3,0)
GPGPU-Sim PTX: 5800000 instructions simulated : ctaid=(3,1,0) tid=(2,0,0)
GPGPU-Sim PTX: 5900000 instructions simulated : ctaid=(12,3,0) tid=(15,6,0)
GPGPU-Sim uArch: cycles simulated: 18500  inst.: 5804548 (ipc=313.8) sim_rate=386969 (inst/sec) elapsed = 0:0:00:15 / Sun Feb 28 21:42:32 2016
GPGPU-Sim PTX: 6000000 instructions simulated : ctaid=(9,2,0) tid=(11,1,0)
GPGPU-Sim PTX: 6100000 instructions simulated : ctaid=(7,4,0) tid=(11,5,0)
GPGPU-Sim PTX: 6200000 instructions simulated : ctaid=(15,1,0) tid=(11,3,0)
GPGPU-Sim uArch: cycles simulated: 19500  inst.: 6115300 (ipc=313.6) sim_rate=382206 (inst/sec) elapsed = 0:0:00:16 / Sun Feb 28 21:42:33 2016
GPGPU-Sim PTX: 6300000 instructions simulated : ctaid=(13,0,0) tid=(11,5,0)
GPGPU-Sim PTX: 6400000 instructions simulated : ctaid=(12,0,0) tid=(11,3,0)
GPGPU-Sim PTX: 6500000 instructions simulated : ctaid=(11,0,0) tid=(6,0,0)
GPGPU-Sim PTX: 6600000 instructions simulated : ctaid=(2,3,0) tid=(11,1,0)
GPGPU-Sim PTX: 6700000 instructions simulated : ctaid=(3,1,0) tid=(11,3,0)
GPGPU-Sim PTX: 6800000 instructions simulated : ctaid=(14,3,0) tid=(11,5,0)
GPGPU-Sim uArch: cycles simulated: 21500  inst.: 6631908 (ipc=308.5) sim_rate=390112 (inst/sec) elapsed = 0:0:00:17 / Sun Feb 28 21:42:34 2016
GPGPU-Sim PTX: 6900000 instructions simulated : ctaid=(8,0,0) tid=(11,3,0)
GPGPU-Sim uArch: cycles simulated: 22000  inst.: 6810372 (ipc=309.6) sim_rate=378354 (inst/sec) elapsed = 0:0:00:18 / Sun Feb 28 21:42:35 2016
GPGPU-Sim PTX: 7000000 instructions simulated : ctaid=(5,4,0) tid=(11,1,0)
GPGPU-Sim PTX: 7100000 instructions simulated : ctaid=(14,0,0) tid=(11,7,0)
GPGPU-Sim PTX: 7200000 instructions simulated : ctaid=(0,0,0) tid=(11,5,0)
GPGPU-Sim PTX: 7300000 instructions simulated : ctaid=(6,3,0) tid=(11,1,0)
GPGPU-Sim PTX: 7400000 instructions simulated : ctaid=(7,2,0) tid=(11,3,0)
GPGPU-Sim PTX: 7500000 instructions simulated : ctaid=(15,1,0) tid=(11,5,0)
GPGPU-Sim uArch: cycles simulated: 23500  inst.: 7337828 (ipc=312.2) sim_rate=386201 (inst/sec) elapsed = 0:0:00:19 / Sun Feb 28 21:42:36 2016
GPGPU-Sim PTX: 7600000 instructions simulated : ctaid=(8,4,0) tid=(11,3,0)
GPGPU-Sim PTX: 7700000 instructions simulated : ctaid=(12,1,0) tid=(11,5,0)
GPGPU-Sim PTX: 7800000 instructions simulated : ctaid=(2,3,0) tid=(11,7,0)
GPGPU-Sim uArch: cycles simulated: 24500  inst.: 7654532 (ipc=312.4) sim_rate=382726 (inst/sec) elapsed = 0:0:00:20 / Sun Feb 28 21:42:37 2016
GPGPU-Sim PTX: 7900000 instructions simulated : ctaid=(10,1,0) tid=(11,7,0)
GPGPU-Sim PTX: 8000000 instructions simulated : ctaid=(0,2,0) tid=(11,5,0)
GPGPU-Sim PTX: 8100000 instructions simulated : ctaid=(2,3,0) tid=(11,3,0)
GPGPU-Sim PTX: 8200000 instructions simulated : ctaid=(11,2,0) tid=(11,5,0)
GPGPU-Sim PTX: 8300000 instructions simulated : ctaid=(11,1,0) tid=(11,1,0)
GPGPU-Sim PTX: 8400000 instructions simulated : ctaid=(8,3,0) tid=(11,7,0)
GPGPU-Sim PTX: 8500000 instructions simulated : ctaid=(12,3,0) tid=(11,1,0)
GPGPU-Sim PTX: 8600000 instructions simulated : ctaid=(3,2,0) tid=(11,1,0)
GPGPU-Sim uArch: cycles simulated: 26500  inst.: 8422051 (ipc=317.8) sim_rate=401050 (inst/sec) elapsed = 0:0:00:21 / Sun Feb 28 21:42:38 2016
GPGPU-Sim PTX: 8700000 instructions simulated : ctaid=(6,1,0) tid=(4,6,0)
GPGPU-Sim PTX: 8800000 instructions simulated : ctaid=(6,0,0) tid=(7,6,0)
GPGPU-Sim PTX: 8900000 instructions simulated : ctaid=(9,3,0) tid=(11,5,0)
GPGPU-Sim PTX: 9000000 instructions simulated : ctaid=(7,0,0) tid=(5,0,0)
GPGPU-Sim uArch: cycles simulated: 27000  inst.: 8816586 (ipc=326.5) sim_rate=400753 (inst/sec) elapsed = 0:0:00:22 / Sun Feb 28 21:42:39 2016
GPGPU-Sim PTX: 9100000 instructions simulated : ctaid=(11,3,0) tid=(14,0,0)
GPGPU-Sim PTX: 9200000 instructions simulated : ctaid=(1,0,0) tid=(13,3,0)
GPGPU-Sim PTX: 9300000 instructions simulated : ctaid=(1,3,0) tid=(1,0,0)
GPGPU-Sim PTX: 9400000 instructions simulated : ctaid=(15,1,0) tid=(3,7,0)
GPGPU-Sim PTX: 9500000 instructions simulated : ctaid=(7,0,0) tid=(7,2,0)
GPGPU-Sim PTX: 9600000 instructions simulated : ctaid=(5,0,0) tid=(6,1,0)
GPGPU-Sim PTX: 9700000 instructions simulated : ctaid=(6,3,0) tid=(0,1,0)
GPGPU-Sim PTX: 9800000 instructions simulated : ctaid=(9,4,0) tid=(14,7,0)
GPGPU-Sim uArch: cycles simulated: 28000  inst.: 9591830 (ipc=342.6) sim_rate=417036 (inst/sec) elapsed = 0:0:00:23 / Sun Feb 28 21:42:40 2016
GPGPU-Sim PTX: 9900000 instructions simulated : ctaid=(1,4,0) tid=(14,1,0)
GPGPU-Sim PTX: 10000000 instructions simulated : ctaid=(9,3,0) tid=(14,0,0)
GPGPU-Sim uArch: cycles simulated: 28500  inst.: 9797372 (ipc=343.8) sim_rate=408223 (inst/sec) elapsed = 0:0:00:24 / Sun Feb 28 21:42:41 2016
GPGPU-Sim PTX: 10100000 instructions simulated : ctaid=(11,2,0) tid=(9,3,0)
GPGPU-Sim PTX: 10200000 instructions simulated : ctaid=(12,0,0) tid=(0,2,0)
GPGPU-Sim PTX: 10300000 instructions simulated : ctaid=(6,2,0) tid=(7,5,0)
GPGPU-Sim uArch: Shader 5 finished CTA #2 (29815,0), 4 CTAs running
GPGPU-Sim uArch: core:  5, cta: 2 initialized @(29816,0)
GPGPU-Sim uArch: Shader 14 finished CTA #0 (29820,0), 4 CTAs running
GPGPU-Sim uArch: core: 14, cta: 0 initialized @(29821,0)
GPGPU-Sim PTX: 10400000 instructions simulated : ctaid=(4,0,0) tid=(13,5,0)
GPGPU-Sim uArch: Shader 0 finished CTA #1 (29841,0), 4 CTAs running
GPGPU-Sim uArch: core:  0, cta: 1 initialized @(29842,0)
GPGPU-Sim uArch: Shader 8 finished CTA #3 (29851,0), 4 CTAs running
GPGPU-Sim uArch: core:  8, cta: 3 initialized @(29852,0)
GPGPU-Sim uArch: Shader 8 finished CTA #2 (29856,0), 4 CTAs running
GPGPU-Sim uArch: core:  8, cta: 2 initialized @(29857,0)
GPGPU-Sim uArch: Shader 0 finished CTA #0 (29857,0), 4 CTAs running
GPGPU-Sim uArch: core:  0, cta: 0 initialized @(29858,0)
GPGPU-Sim uArch: Shader 9 finished CTA #4 (29901,0), 4 CTAs running
GPGPU-Sim uArch: core:  9, cta: 4 initialized @(29902,0)
GPGPU-Sim uArch: Shader 0 finished CTA #3 (29911,0), 4 CTAs running
GPGPU-Sim uArch: core:  0, cta: 3 initialized @(29912,0)
GPGPU-Sim uArch: Shader 1 finished CTA #0 (29914,0), 4 CTAs running
GPGPU-Sim uArch: core:  1, cta: 0 initialized @(29915,0)
GPGPU-Sim uArch: Shader 3 finished CTA #0 (29918,0), 4 CTAs running
GPGPU-Sim uArch: Shader 6 finished CTA #2 (29918,0), 4 CTAs running
GPGPU-Sim uArch: core:  3, cta: 0 initialized @(29919,0)
GPGPU-Sim uArch: core:  6, cta: 2 initialized @(29919,0)
GPGPU-Sim uArch: Shader 9 finished CTA #3 (29921,0), 4 CTAs running
GPGPU-Sim uArch: core:  9, cta: 3 initialized @(29922,0)
GPGPU-Sim uArch: Shader 0 finished CTA #2 (29922,0), 4 CTAs running
GPGPU-Sim uArch: Shader 1 finished CTA #1 (29922,0), 4 CTAs running
GPGPU-Sim uArch: core:  0, cta: 2 initialized @(29923,0)
GPGPU-Sim uArch: core:  1, cta: 1 initialized @(29923,0)
GPGPU-Sim uArch: Shader 5 finished CTA #3 (29932,0), 4 CTAs running
GPGPU-Sim uArch: core:  5, cta: 3 initialized @(29933,0)
GPGPU-Sim uArch: Shader 0 finished CTA #4 (29936,0), 4 CTAs running
GPGPU-Sim uArch: core:  0, cta: 4 initialized @(29937,0)
GPGPU-Sim uArch: Shader 6 finished CTA #4 (29944,0), 4 CTAs running
GPGPU-Sim uArch: Shader 8 finished CTA #4 (29944,0), 4 CTAs running
GPGPU-Sim uArch: core:  6, cta: 4 initialized @(29945,0)
GPGPU-Sim uArch: core:  8, cta: 4 initialized @(29945,0)
GPGPU-Sim uArch: Shader 1 finished CTA #2 (29950,0), 4 CTAs running
GPGPU-Sim uArch: core:  1, cta: 2 initialized @(29951,0)
GPGPU-Sim uArch: Shader 2 finished CTA #1 (29964,0), 4 CTAs running
GPGPU-Sim uArch: core:  2, cta: 1 initialized @(29965,0)
GPGPU-Sim uArch: Shader 4 finished CTA #2 (29968,0), 4 CTAs running
GPGPU-Sim uArch: core:  4, cta: 2 initialized @(29969,0)
GPGPU-Sim uArch: Shader 6 finished CTA #3 (29980,0), 4 CTAs running
GPGPU-Sim uArch: core:  6, cta: 3 initialized @(29981,0)
GPGPU-Sim uArch: cycles simulated: 30000  inst.: 10171385 (ipc=339.0) sim_rate=406855 (inst/sec) elapsed = 0:0:00:25 / Sun Feb 28 21:42:42 2016
GPGPU-Sim uArch: Shader 3 finished CTA #1 (30000,0), 4 CTAs running
GPGPU-Sim uArch: core:  3, cta: 1 initialized @(30001,0)
GPGPU-Sim uArch: Shader 2 finished CTA #0 (30002,0), 4 CTAs running
GPGPU-Sim uArch: core:  2, cta: 0 initialized @(30003,0)
GPGPU-Sim uArch: Shader 2 finished CTA #4 (30018,0), 4 CTAs running
GPGPU-Sim uArch: core:  2, cta: 4 initialized @(30019,0)
GPGPU-Sim uArch: Shader 3 finished CTA #2 (30022,0), 4 CTAs running
GPGPU-Sim uArch: core:  3, cta: 2 initialized @(30023,0)
GPGPU-Sim uArch: Shader 2 finished CTA #3 (30028,0), 4 CTAs running
GPGPU-Sim uArch: core:  2, cta: 3 initialized @(30029,0)
GPGPU-Sim uArch: Shader 4 finished CTA #1 (30030,0), 4 CTAs running
GPGPU-Sim uArch: core:  4, cta: 1 initialized @(30031,0)
GPGPU-Sim uArch: Shader 2 finished CTA #2 (30034,0), 4 CTAs running
GPGPU-Sim uArch: core:  2, cta: 2 initialized @(30035,0)
GPGPU-Sim uArch: Shader 1 finished CTA #3 (30043,0), 4 CTAs running
GPGPU-Sim uArch: core:  1, cta: 3 initialized @(30044,0)
GPGPU-Sim uArch: Shader 4 finished CTA #3 (30046,0), 4 CTAs running
GPGPU-Sim uArch: core:  4, cta: 3 initialized @(30047,0)
GPGPU-Sim uArch: Shader 7 finished CTA #3 (30052,0), 4 CTAs running
GPGPU-Sim uArch: core:  7, cta: 3 initialized @(30053,0)
GPGPU-Sim uArch: Shader 1 finished CTA #4 (30053,0), 4 CTAs running
GPGPU-Sim uArch: core:  1, cta: 4 initialized @(30054,0)
GPGPU-Sim uArch: Shader 4 finished CTA #4 (30058,0), 4 CTAs running
GPGPU-Sim uArch: core:  4, cta: 4 initialized @(30059,0)
GPGPU-Sim uArch: Shader 5 finished CTA #4 (30103,0), 4 CTAs running
GPGPU-Sim uArch: core:  5, cta: 4 initialized @(30104,0)
GPGPU-Sim uArch: Shader 3 finished CTA #4 (30112,0), 4 CTAs running
GPGPU-Sim uArch: core:  3, cta: 4 initialized @(30113,0)
GPGPU-Sim PTX: 10500000 instructions simulated : ctaid=(11,0,0) tid=(12,7,0)
GPGPU-Sim uArch: Shader 3 finished CTA #3 (30161,0), 4 CTAs running
GPGPU-Sim uArch: core:  3, cta: 3 initialized @(30162,0)
GPGPU-Sim uArch: Shader 7 finished CTA #4 (30185,0), 4 CTAs running
GPGPU-Sim uArch: core:  7, cta: 4 initialized @(30186,0)
GPGPU-Sim uArch: Shader 10 finished CTA #4 (30318,0), 4 CTAs running
GPGPU-Sim uArch: core: 10, cta: 4 initialized @(30319,0)
GPGPU-Sim PTX: 10600000 instructions simulated : ctaid=(14,4,0) tid=(6,4,0)
GPGPU-Sim uArch: cycles simulated: 30500  inst.: 10334167 (ipc=338.8) sim_rate=397467 (inst/sec) elapsed = 0:0:00:26 / Sun Feb 28 21:42:43 2016
GPGPU-Sim PTX: 10700000 instructions simulated : ctaid=(8,0,0) tid=(11,5,0)
GPGPU-Sim PTX: 10800000 instructions simulated : ctaid=(8,0,0) tid=(7,4,0)
GPGPU-Sim uArch: cycles simulated: 31500  inst.: 10579986 (ipc=335.9) sim_rate=391851 (inst/sec) elapsed = 0:0:00:27 / Sun Feb 28 21:42:44 2016
GPGPU-Sim PTX: 10900000 instructions simulated : ctaid=(11,1,0) tid=(8,2,0)
GPGPU-Sim PTX: 11000000 instructions simulated : ctaid=(12,0,0) tid=(1,7,0)
GPGPU-Sim PTX: 11100000 instructions simulated : ctaid=(6,1,0) tid=(11,1,0)
GPGPU-Sim PTX: 11200000 instructions simulated : ctaid=(15,5,0) tid=(9,3,0)
GPGPU-Sim uArch: cycles simulated: 33000  inst.: 10956593 (ipc=332.0) sim_rate=391306 (inst/sec) elapsed = 0:0:00:28 / Sun Feb 28 21:42:45 2016
GPGPU-Sim PTX: 11300000 instructions simulated : ctaid=(8,5,0) tid=(5,3,0)
GPGPU-Sim PTX: 11400000 instructions simulated : ctaid=(14,4,0) tid=(13,7,0)
GPGPU-Sim PTX: 11500000 instructions simulated : ctaid=(9,6,0) tid=(12,6,0)
GPGPU-Sim PTX: 11600000 instructions simulated : ctaid=(8,4,0) tid=(4,3,0)
GPGPU-Sim uArch: cycles simulated: 34500  inst.: 11371208 (ipc=329.6) sim_rate=392110 (inst/sec) elapsed = 0:0:00:29 / Sun Feb 28 21:42:46 2016
GPGPU-Sim PTX: 11700000 instructions simulated : ctaid=(1,7,0) tid=(7,1,0)
GPGPU-Sim PTX: 11800000 instructions simulated : ctaid=(8,4,0) tid=(13,0,0)
GPGPU-Sim PTX: 11900000 instructions simulated : ctaid=(6,3,0) tid=(11,0,0)
GPGPU-Sim PTX: 12000000 instructions simulated : ctaid=(12,4,0) tid=(5,0,0)
GPGPU-Sim PTX: 12100000 instructions simulated : ctaid=(6,1,0) tid=(13,0,0)
GPGPU-Sim uArch: cycles simulated: 35500  inst.: 11825663 (ipc=333.1) sim_rate=394188 (inst/sec) elapsed = 0:0:00:30 / Sun Feb 28 21:42:47 2016
GPGPU-Sim PTX: 12200000 instructions simulated : ctaid=(0,7,0) tid=(12,4,0)
GPGPU-Sim uArch: Shader 14 finished CTA #2 (35613,0), 4 CTAs running
GPGPU-Sim uArch: core: 14, cta: 2 initialized @(35614,0)
GPGPU-Sim PTX: 12300000 instructions simulated : ctaid=(11,6,0) tid=(11,3,0)
GPGPU-Sim PTX: 12400000 instructions simulated : ctaid=(12,6,0) tid=(11,6,0)
GPGPU-Sim uArch: cycles simulated: 36000  inst.: 12115931 (ipc=336.6) sim_rate=390836 (inst/sec) elapsed = 0:0:00:31 / Sun Feb 28 21:42:48 2016
GPGPU-Sim PTX: 12500000 instructions simulated : ctaid=(6,6,0) tid=(0,6,0)
GPGPU-Sim PTX: 12600000 instructions simulated : ctaid=(5,1,0) tid=(3,7,0)
GPGPU-Sim PTX: 12700000 instructions simulated : ctaid=(9,3,0) tid=(7,2,0)
GPGPU-Sim PTX: 12800000 instructions simulated : ctaid=(7,5,0) tid=(12,4,0)
GPGPU-Sim PTX: 12900000 instructions simulated : ctaid=(6,5,0) tid=(2,4,0)
GPGPU-Sim PTX: 13000000 instructions simulated : ctaid=(3,5,0) tid=(4,2,0)
GPGPU-Sim uArch: Shader 7 finished CTA #2 (36966,0), 4 CTAs running
GPGPU-Sim uArch: core:  7, cta: 2 initialized @(36967,0)
GPGPU-Sim uArch: cycles simulated: 37000  inst.: 12726612 (ipc=344.0) sim_rate=397706 (inst/sec) elapsed = 0:0:00:32 / Sun Feb 28 21:42:49 2016
GPGPU-Sim PTX: 13100000 instructions simulated : ctaid=(2,5,0) tid=(6,7,0)
GPGPU-Sim PTX: 13200000 instructions simulated : ctaid=(0,6,0) tid=(14,1,0)
GPGPU-Sim PTX: 13300000 instructions simulated : ctaid=(13,5,0) tid=(9,7,0)
GPGPU-Sim uArch: cycles simulated: 37500  inst.: 12987315 (ipc=346.3) sim_rate=393555 (inst/sec) elapsed = 0:0:00:33 / Sun Feb 28 21:42:50 2016
GPGPU-Sim PTX: 13400000 instructions simulated : ctaid=(12,6,0) tid=(11,6,0)
GPGPU-Sim PTX: 13500000 instructions simulated : ctaid=(7,6,0) tid=(0,6,0)
GPGPU-Sim PTX: 13600000 instructions simulated : ctaid=(9,4,0) tid=(6,2,0)
GPGPU-Sim PTX: 13700000 instructions simulated : ctaid=(10,6,0) tid=(15,1,0)
GPGPU-Sim PTX: 13800000 instructions simulated : ctaid=(7,0,0) tid=(10,7,0)
GPGPU-Sim uArch: cycles simulated: 38500  inst.: 13462145 (ipc=349.7) sim_rate=395945 (inst/sec) elapsed = 0:0:00:34 / Sun Feb 28 21:42:51 2016
GPGPU-Sim PTX: 13900000 instructions simulated : ctaid=(7,5,0) tid=(2,4,0)
GPGPU-Sim PTX: 14000000 instructions simulated : ctaid=(11,5,0) tid=(9,6,0)
GPGPU-Sim PTX: 14100000 instructions simulated : ctaid=(6,2,0) tid=(8,1,0)
GPGPU-Sim PTX: 14200000 instructions simulated : ctaid=(13,6,0) tid=(13,0,0)
GPGPU-Sim PTX: 14300000 instructions simulated : ctaid=(11,0,0) tid=(1,0,0)
GPGPU-Sim uArch: cycles simulated: 39500  inst.: 13955364 (ipc=353.3) sim_rate=398724 (inst/sec) elapsed = 0:0:00:35 / Sun Feb 28 21:42:52 2016
GPGPU-Sim PTX: 14400000 instructions simulated : ctaid=(4,1,0) tid=(6,3,0)
GPGPU-Sim PTX: 14500000 instructions simulated : ctaid=(9,0,0) tid=(7,2,0)
GPGPU-Sim PTX: 14600000 instructions simulated : ctaid=(1,6,0) tid=(8,3,0)
GPGPU-Sim uArch: cycles simulated: 40000  inst.: 14245063 (ipc=356.1) sim_rate=395696 (inst/sec) elapsed = 0:0:00:36 / Sun Feb 28 21:42:53 2016
GPGPU-Sim PTX: 14700000 instructions simulated : ctaid=(1,6,0) tid=(4,0,0)
GPGPU-Sim PTX: 14800000 instructions simulated : ctaid=(15,5,0) tid=(1,4,0)
GPGPU-Sim PTX: 14900000 instructions simulated : ctaid=(9,4,0) tid=(11,7,0)
GPGPU-Sim PTX: 15000000 instructions simulated : ctaid=(6,0,0) tid=(12,4,0)
GPGPU-Sim PTX: 15100000 instructions simulated : ctaid=(0,5,0) tid=(2,5,0)
GPGPU-Sim PTX: 15200000 instructions simulated : ctaid=(1,5,0) tid=(6,3,0)
GPGPU-Sim uArch: cycles simulated: 41000  inst.: 14848516 (ipc=362.2) sim_rate=401311 (inst/sec) elapsed = 0:0:00:37 / Sun Feb 28 21:42:54 2016
GPGPU-Sim PTX: 15300000 instructions simulated : ctaid=(15,6,0) tid=(6,7,0)
GPGPU-Sim PTX: 15400000 instructions simulated : ctaid=(7,0,0) tid=(5,3,0)
GPGPU-Sim PTX: 15500000 instructions simulated : ctaid=(9,6,0) tid=(1,4,0)
GPGPU-Sim PTX: 15600000 instructions simulated : ctaid=(9,2,0) tid=(3,2,0)
GPGPU-Sim PTX: 15700000 instructions simulated : ctaid=(8,1,0) tid=(2,3,0)
GPGPU-Sim uArch: cycles simulated: 42000  inst.: 15338548 (ipc=365.2) sim_rate=403646 (inst/sec) elapsed = 0:0:00:38 / Sun Feb 28 21:42:55 2016
GPGPU-Sim PTX: 15800000 instructions simulated : ctaid=(8,2,0) tid=(4,1,0)
GPGPU-Sim PTX: 15900000 instructions simulated : ctaid=(4,6,0) tid=(9,1,0)
GPGPU-Sim uArch: Shader 14 finished CTA #3 (42458,0), 4 CTAs running
GPGPU-Sim uArch: core: 14, cta: 3 initialized @(42459,0)
GPGPU-Sim PTX: 16000000 instructions simulated : ctaid=(4,6,0) tid=(10,3,0)
GPGPU-Sim PTX: 16100000 instructions simulated : ctaid=(9,1,0) tid=(8,1,0)
GPGPU-Sim PTX: 16200000 instructions simulated : ctaid=(11,0,0) tid=(10,4,0)
GPGPU-Sim uArch: cycles simulated: 43000  inst.: 15793544 (ipc=367.3) sim_rate=404962 (inst/sec) elapsed = 0:0:00:39 / Sun Feb 28 21:42:56 2016
GPGPU-Sim uArch: Shader 13 finished CTA #2 (43060,0), 4 CTAs running
GPGPU-Sim uArch: core: 13, cta: 2 initialized @(43061,0)
GPGPU-Sim PTX: 16300000 instructions simulated : ctaid=(4,5,0) tid=(13,5,0)
GPGPU-Sim PTX: 16400000 instructions simulated : ctaid=(1,6,0) tid=(15,5,0)
GPGPU-Sim uArch: cycles simulated: 43500  inst.: 16041913 (ipc=368.8) sim_rate=401047 (inst/sec) elapsed = 0:0:00:40 / Sun Feb 28 21:42:57 2016
GPGPU-Sim PTX: 16500000 instructions simulated : ctaid=(7,5,0) tid=(14,3,0)
GPGPU-Sim PTX: 16600000 instructions simulated : ctaid=(11,0,0) tid=(12,4,0)
GPGPU-Sim PTX: 16700000 instructions simulated : ctaid=(14,4,0) tid=(13,1,0)
GPGPU-Sim PTX: 16800000 instructions simulated : ctaid=(7,4,0) tid=(8,6,0)
GPGPU-Sim PTX: 16900000 instructions simulated : ctaid=(9,4,0) tid=(1,6,0)
GPGPU-Sim uArch: cycles simulated: 44500  inst.: 16483687 (ipc=370.4) sim_rate=402041 (inst/sec) elapsed = 0:0:00:41 / Sun Feb 28 21:42:58 2016
GPGPU-Sim PTX: 17000000 instructions simulated : ctaid=(5,5,0) tid=(4,6,0)
GPGPU-Sim uArch: Shader 5 finished CTA #1 (44772,0), 4 CTAs running
GPGPU-Sim uArch: core:  5, cta: 1 initialized @(44773,0)
GPGPU-Sim PTX: 17100000 instructions simulated : ctaid=(6,6,0) tid=(15,2,0)
GPGPU-Sim PTX: 17200000 instructions simulated : ctaid=(1,5,0) tid=(11,3,0)
GPGPU-Sim uArch: Shader 4 finished CTA #0 (45175,0), 4 CTAs running
GPGPU-Sim uArch: core:  4, cta: 0 initialized @(45176,0)
GPGPU-Sim PTX: 17300000 instructions simulated : ctaid=(9,6,0) tid=(2,3,0)
GPGPU-Sim uArch: cycles simulated: 45500  inst.: 16937392 (ipc=372.3) sim_rate=403271 (inst/sec) elapsed = 0:0:00:42 / Sun Feb 28 21:42:59 2016
GPGPU-Sim PTX: 17400000 instructions simulated : ctaid=(7,5,0) tid=(15,3,0)
GPGPU-Sim uArch: Shader 11 finished CTA #4 (45617,0), 4 CTAs running
GPGPU-Sim uArch: core: 11, cta: 4 initialized @(45618,0)
GPGPU-Sim uArch: Shader 13 finished CTA #0 (45667,0), 4 CTAs running
GPGPU-Sim uArch: core: 13, cta: 0 initialized @(45668,0)
GPGPU-Sim PTX: 17500000 instructions simulated : ctaid=(7,2,0) tid=(10,1,0)
GPGPU-Sim PTX: 17600000 instructions simulated : ctaid=(11,6,0) tid=(12,7,0)
GPGPU-Sim uArch: Shader 13 finished CTA #1 (45953,0), 4 CTAs running
GPGPU-Sim uArch: core: 13, cta: 1 initialized @(45954,0)
GPGPU-Sim uArch: cycles simulated: 46000  inst.: 17154272 (ipc=372.9) sim_rate=398936 (inst/sec) elapsed = 0:0:00:43 / Sun Feb 28 21:43:00 2016
GPGPU-Sim uArch: Shader 12 finished CTA #3 (46063,0), 4 CTAs running
GPGPU-Sim uArch: core: 12, cta: 3 initialized @(46064,0)
GPGPU-Sim uArch: Shader 13 finished CTA #3 (46072,0), 4 CTAs running
GPGPU-Sim uArch: core: 13, cta: 3 initialized @(46073,0)
GPGPU-Sim PTX: 17700000 instructions simulated : ctaid=(12,7,0) tid=(6,1,0)
GPGPU-Sim PTX: 17800000 instructions simulated : ctaid=(5,6,0) tid=(2,6,0)
GPGPU-Sim PTX: 17900000 instructions simulated : ctaid=(14,4,0) tid=(15,4,0)
GPGPU-Sim PTX: 18000000 instructions simulated : ctaid=(6,7,0) tid=(15,1,0)
GPGPU-Sim PTX: 18100000 instructions simulated : ctaid=(9,7,0) tid=(0,3,0)
GPGPU-Sim uArch: cycles simulated: 47000  inst.: 17658276 (ipc=375.7) sim_rate=401324 (inst/sec) elapsed = 0:0:00:44 / Sun Feb 28 21:43:01 2016
GPGPU-Sim PTX: 18200000 instructions simulated : ctaid=(1,7,0) tid=(6,0,0)
GPGPU-Sim uArch: Shader 9 finished CTA #4 (47202,0), 4 CTAs running
GPGPU-Sim uArch: core:  9, cta: 4 initialized @(47203,0)
GPGPU-Sim PTX: 18300000 instructions simulated : ctaid=(5,5,0) tid=(8,0,0)
GPGPU-Sim PTX: 18400000 instructions simulated : ctaid=(7,5,0) tid=(5,2,0)
GPGPU-Sim uArch: Shader 7 finished CTA #4 (47499,0), 4 CTAs running
GPGPU-Sim uArch: core:  7, cta: 4 initialized @(47500,0)
GPGPU-Sim uArch: cycles simulated: 47500  inst.: 17926525 (ipc=377.4) sim_rate=398367 (inst/sec) elapsed = 0:0:00:45 / Sun Feb 28 21:43:02 2016
GPGPU-Sim uArch: Shader 7 finished CTA #3 (47509,0), 4 CTAs running
GPGPU-Sim uArch: core:  7, cta: 3 initialized @(47510,0)
GPGPU-Sim PTX: 18500000 instructions simulated : ctaid=(3,5,0) tid=(8,3,0)
GPGPU-Sim uArch: Shader 8 finished CTA #4 (47737,0), 4 CTAs running
GPGPU-Sim uArch: core:  8, cta: 4 initialized @(47738,0)
GPGPU-Sim uArch: Shader 8 finished CTA #3 (47844,0), 4 CTAs running
GPGPU-Sim uArch: core:  8, cta: 3 initialized @(47845,0)
GPGPU-Sim PTX: 18600000 instructions simulated : ctaid=(8,5,0) tid=(6,1,0)
GPGPU-Sim uArch: Shader 8 finished CTA #2 (47857,0), 4 CTAs running
GPGPU-Sim uArch: core:  8, cta: 2 initialized @(47858,0)
GPGPU-Sim uArch: Shader 10 finished CTA #4 (47941,0), 4 CTAs running
GPGPU-Sim uArch: core: 10, cta: 4 initialized @(47942,0)
GPGPU-Sim uArch: Shader 14 finished CTA #1 (48023,0), 4 CTAs running
GPGPU-Sim uArch: core: 14, cta: 1 initialized @(48024,0)
GPGPU-Sim uArch: Shader 14 finished CTA #0 (48028,0), 4 CTAs running
[...]
max_icnt2mem_latency = 1107 
max_icnt2sh_latency = 151701 
mrq_lat_table:29950 	3158 	3168 	4703 	13603 	14853 	13500 	7631 	1651 	115 	2 	0 	0 	0 	0 	0 	0 	0 	0 	0 	0 	0 	0 	0 	0 	0 	0 	0 	0 	0 	0 	0 	
dq_lat_table:0 	0 	0 	0 	0 	0 	0 	0 	0 	0 	0 	0 	0 	0 	0 	0 	0 	0 	0 	0 	0 	0 	0 	0 	0 	0 	0 	0 	0 	0 	0 	0 	
mf_lat_table:0 	0 	0 	0 	0 	0 	0 	21548 	26666 	14220 	1483 	0 	0 	0 	0 	0 	0 	0 	0 	0 	0 	0 	0 	0 	0 	0 	0 	0 	0 	0 	0 	0 	
icnt2mem_lat_table:0 	0 	0 	20699 	12537 	12323 	25723 	4996 	5225 	654 	4 	0 	0 	0 	0 	0 	0 	0 	0 	0 	0 	0 	0 	0 	
icnt2sh_lat_table:0 	0 	0 	5904 	4055 	1136 	73 	0 	0 	186 	497 	1395 	3087 	2635 	4333 	9748 	21681 	9187 	0 	0 	0 	0 	0 	0 	
mf_lat_pw_table:0 	0 	0 	0 	0 	0 	0 	117 	123 	37 	4 	0 	0 	0 	0 	0 	0 	0 	0 	0 	0 	0 	0 	0 	0 	0 	0 	0 	0 	0 	0 	0 	
maximum concurrent accesses to same row:
dram[0]:        62        62        65        62        56        52        48        46        44        42        36        36        19        21        20        20 
dram[1]:        60        60        64        60        54        54        38        44        38        36        32        30        18        23        20        17 
dram[2]:        62        64        64        64        54        60        27        52        52        44        38        42        20        20        26        22 
dram[3]:        60        60        63        59        34        40        44        46        50        40        38        40        20        20        26        22 
dram[4]:        62        64        65        60        56        56        45        44        48        46        38        42        20        16        22        20 
dram[5]:        58        62        63        59        36        54        32        34        34        30        30        30        21        18        27        19 
maximum service time to same row:
dram[0]:     15357      9386     18319     18028     15071     16456     14434     14374     19916     19719     19785     20014     20097     21219     22618     21181 
dram[1]:     12797      9949     18350     18345     17875     16292     14468     13705     20091     19500     19540     20212     21336     20781     21051     20715 
dram[2]:     12035     10806     18026     18253     17457     15003     14149     19671     20177     19940     19672     20241     20279     20299     21271     21176 
dram[3]:     11293     10357     18262     17980     14685     15906     14195     13959     20110     19205     18955     20163     19239     21547     21039     19741 
dram[4]:     10716     16015     18178     18114     16160     15651     18694     13428     19824     19654     19614     19714     19602     20242     21167     21249 
dram[5]:      9911     15515     18091     18342     15200     16165     15262     14379     19812     19505     19485     19855     20805     20012     20847     20805 
average row accesses per activate:
dram[0]:  5.176471  5.012270  5.389262  5.718121  4.711957  4.049327  4.427984  3.735294  4.179487  4.231343  4.025548  3.700315  4.183908  4.107807  4.885246  4.430693 
dram[1]:  4.480198  4.683616  5.551724  4.757062  4.080000  4.267327  3.773519  3.802083  3.867383  3.930796  3.645902  3.763699  3.926471  3.930909  4.314721  4.150943 
dram[2]:  4.922156  4.876471  5.387097  5.220000  4.377660  4.908571  3.955390  4.526087  3.871324  4.377049  3.703333  4.251012  4.000000  4.556561  5.393548  4.642857 
dram[3]:  4.806818  5.000000  5.261147  5.076433  4.121951  3.812227  4.196000  3.910112  4.060606  3.981132  3.769491  3.795302  4.141177  4.139344  5.012346  4.406250 
dram[4]:  5.120000  5.865672  5.886364  5.125786  4.518135  3.955157  4.161943  4.103734  4.282258  4.326613  3.943609  3.775168  4.283951  4.504348  4.860606  5.087719 
dram[5]:  4.963855  5.367742  5.391892  4.932927  3.732456  4.318408  3.555556  4.015444  4.075758  3.650685  3.588424  3.812925  4.114943  4.177866  4.795455  4.447761 
average row locality = 92334/21494 = 4.295804
number of total memory accesses made:
dram[0]:         0         0         0         0         0         0         0         0         0         0         0         0         0         0         0         0 
dram[1]:         0         0         0         0         0         0         0         0         0         0         0         0         0         0         0         0 
dram[2]:         0         0         0         0         0         0         0         0         0         0         0         0         0         0         0         0 
dram[3]:         0         0         0         0         0         0         0         0         0         0         0         0         0         0         0         0 
dram[4]:         0         0         0         0         0         0         0         0         0         0         0         0         0         0         0         0 
dram[5]:         0         0         0         0         0         0         0         0         0         0         0         0         0         0         0         0 
total accesses: 0
min_bank_accesses = 0!
min_chip_accesses = 0!
number of total read accesses:
dram[0]:       404       379       377       395       402       431       493       527       517       524       511       544       496       507       418       418 
dram[1]:       428       388       377       393       429       400       491       503       493       524       517       504       492       499       398       415 
dram[2]:       382       384       389       362       390       397       488       475       493       497       514       485       482       461       390       393 
dram[3]:       398       414       382       369       401       405       481       481       500       485       512       531       490       462       376       402 
dram[4]:       416       374       368       378       402       410       466       455       487       494       483       522       473       475       382       408 
dram[5]:       387       399       375       376       396       405       500       474       501       490       520       515       492       488       402       418 
total reads: 42796
bank skew: 544/362 = 1.50
chip skew: 7343/6982 = 1.05
number of total write accesses:
dram[0]:       476       438       426       457       465       472       583       616       624       610       592       629       596       598       476       477 
dram[1]:       477       441       428       449       489       462       592       592       586       612       595       595       576       582       452       465 
dram[2]:       440       445       446       421       433       462       576       566       560       571       597       565       574       546       446       452 
dram[3]:       448       481       444       428       444       468       568       563       572       570       600       600       566       548       436       444 
dram[4]:       480       412       409       437       470       472       562       534       575       579       566       603       568       561       420       462 
dram[5]:       437       433       423       433       455       463       588       566       575       576       596       606       582       569       442       476 
total reads: 49538
bank skew: 629/409 = 1.54
chip skew: 8535/8100 = 1.05
average mf latency per bank:
dram[0]:        296       273       304       299       313       296       314       282       278       291       274       282       290       289       310       317
dram[1]:        271       242       262       258       254       261       254       245       245       250       239       238       245       247       277       278
dram[2]:        266       268       292       301       308       306       275       295       277       266       261       270       271       276       301       291
dram[3]:        235       243       256       273       255       262       243       250       241       242       236       241       244       242       290       265
dram[4]:        262       266       307       304       302       301       296       298       287       269       264       261       272       287       311       300
dram[5]:        252       242       269       267       259       270       240       260       253       239       237       229       240       257       284       259
maximum mf latency per bank:
dram[0]:       1293      1358      1695      1583      1647      1690      1493      1393      1422      1255      1300      1154      1424      1291      1230      1381
dram[1]:       1344      1447      1446      1432      1504      1595      1426      1048      1033      1187      1079      1135      1179      1099      1217      1098
dram[2]:       1316      1333      1735      1723      1548      1584      1584      1442      1432      1494      1290      1301      1328      1442      1382      1319
dram[3]:       1138      1370      1537      1697      1341      1619      1117      1455      1075      1072      1022      1200      1029      1366      1215      1087
dram[4]:       1393      1510      1827      1821      1698      1698      1689      1761      1615      1426      1351      1302      1365      1197      1231      1358
dram[5]:       1374      1347      1776      1558      1604      1693      1447      1507      1206      1027      1112      1036      1117      1110      1177      1157

Number of Memory Banks Accessed per Memory Operation per Warp (from 0):
0	0	0	0	0	0	0	0	0	0	0	0	0	0	0	0	0	0	0	0	0	0	0	0	0	0	0	0	0	0	0	0	0	0	0	0	0	0	0	0	0	0	0	0	0	0	0	0	0	0	0	0	0	0	0	0	0	0	0	0	0	0	0	0	0	0	0	0	0	0	0	0	0	0	0	0	0	0	0	0	0	0	0	0	0	0	0	0	0	0	0	0	0	0	0	0	
Average # of Memory Banks Accessed per Memory Operation per Warp=-nan

position of mrq chosen
0	0	0	0	0	0	0	0	0	0	0	0	0	0	0	0	

average position of mrq chosen = -nan
Memory Partition 0: 
Cache L2_bank_000:
MSHR contents

Cache L2_bank_001:
MSHR contents

In Dram Latency Queue (total = 0): 
DRAM[0]: 16 bks, busW=4 BL=8 CL=12, tRRD=2 tCCD=6, tRCD=12 tRAS=28 tRP=12 tRC=40
n_cmd=200246 n_nop=161794 n_act=3634 n_pre=3618 n_req=15878 n_rd=14686 n_write=16514 bw_util=0.3116
n_activity=111957 dram_eff=0.5574
bk0: 808a 168349i bk1: 758a 171471i bk2: 754a 170345i bk3: 790a 167780i bk4: 804a 165402i bk5: 862a 163886i bk6: 986a 156102i bk7: 1054a 151667i bk8: 1034a 156182i bk9: 1048a 154011i bk10: 1022a 155075i bk11: 1088a 152275i bk12: 992a 153680i bk13: 1014a 153125i bk14: 836a 159939i bk15: 836a 159617i 
dram_util_bins: 0 0 0 0 0 0 0 0 0 0
dram_eff_bins: 0 0 0 0 0 0 0 0 0 0
mrqq: max=16 avg=5.08263
Memory Partition 1: 
Cache L2_bank_002:
MSHR contents

Cache L2_bank_003:
MSHR contents

In Dram Latency Queue (total = 0): 
DRAM[1]: 16 bks, busW=4 BL=8 CL=12, tRRD=2 tCCD=6, tRCD=12 tRAS=28 tRP=12 tRC=40
n_cmd=200246 n_nop=161852 n_act=3824 n_pre=3808 n_req=15644 n_rd=14502 n_write=16260 bw_util=0.3072
n_activity=114405 dram_eff=0.5378
bk0: 856a 169038i bk1: 776a 171806i bk2: 754a 170702i bk3: 786a 169079i bk4: 858a 164617i bk5: 800a 164738i bk6: 982a 158303i bk7: 1006a 156630i bk8: 986a 160283i bk9: 1048a 156425i bk10: 1034a 155848i bk11: 1008a 156565i bk12: 984a 154883i bk13: 998a 155185i bk14: 796a 163845i bk15: 830a 161520i 
dram_util_bins: 0 0 0 0 0 0 0 0 0 0
dram_eff_bins: 0 0 0 0 0 0 0 0 0 0
mrqq: max=16 avg=4.46596
Memory Partition 2: 
Cache L2_bank_004:
MSHR contents

Cache L2_bank_005:
MSHR contents

In Dram Latency Queue (total = 0): 
DRAM[2]: 16 bks, busW=4 BL=8 CL=12, tRRD=2 tCCD=6, tRCD=12 tRAS=28 tRP=12 tRC=40
n_cmd=200246 n_nop=163887 n_act=3389 n_pre=3373 n_req=15082 n_rd=13964 n_write=15633 bw_util=0.2956
n_activity=112521 dram_eff=0.5261
bk0: 764a 173960i bk1: 768a 174265i bk2: 778a 172130i bk3: 724a 173246i bk4: 780a 169348i bk5: 794a 166671i bk6: 976a 160109i bk7: 950a 160579i bk8: 986a 161410i bk9: 994a 160265i bk10: 1028a 157994i bk11: 970a 158346i bk12: 964a 157489i bk13: 922a 160118i bk14: 780a 165541i bk15: 786a 164820i 
dram_util_bins: 0 0 0 0 0 0 0 0 0 0
dram_eff_bins: 0 0 0 0 0 0 0 0 0 0
mrqq: max=16 avg=4.43258
Memory Partition 3: 
Cache L2_bank_006:
MSHR contents

Cache L2_bank_007:
MSHR contents

In Dram Latency Queue (total = 0): 
DRAM[3]: 16 bks, busW=4 BL=8 CL=12, tRRD=2 tCCD=6, tRCD=12 tRAS=28 tRP=12 tRC=40
n_cmd=200246 n_nop=163073 n_act=3595 n_pre=3579 n_req=15269 n_rd=14178 n_write=15821 bw_util=0.2996
n_activity=113527 dram_eff=0.5285
bk0: 796a 171415i bk1: 828a 171316i bk2: 764a 171550i bk3: 738a 172384i bk4: 802a 167126i bk5: 810a 166237i bk6: 962a 161201i bk7: 962a 158878i bk8: 1000a 160172i bk9: 970a 160114i bk10: 1024a 157285i bk11: 1062a 154813i bk12: 980a 158405i bk13: 924a 159297i bk14: 752a 165456i bk15: 804a 165030i 
dram_util_bins: 0 0 0 0 0 0 0 0 0 0
dram_eff_bins: 0 0 0 0 0 0 0 0 0 0
mrqq: max=16 avg=4.3628
Memory Partition 4: 
Cache L2_bank_008:
MSHR contents

Cache L2_bank_009:
MSHR contents

In Dram Latency Queue (total = 0): 
DRAM[4]: 16 bks, busW=4 BL=8 CL=12, tRRD=2 tCCD=6, tRCD=12 tRAS=28 tRP=12 tRC=40
n_cmd=200246 n_nop=163865 n_act=3373 n_pre=3357 n_req=15103 n_rd=13986 n_write=15665 bw_util=0.2961
n_activity=108866 dram_eff=0.5447
bk0: 832a 170593i bk1: 748a 173640i bk2: 736a 171103i bk3: 756a 170602i bk4: 804a 167216i bk5: 820a 164216i bk6: 932a 159412i bk7: 910a 160501i bk8: 974a 158919i bk9: 988a 159576i bk10: 966a 159405i bk11: 1044a 153658i bk12: 946a 156554i bk13: 950a 156394i bk14: 764a 165402i bk15: 816a 162414i 
dram_util_bins: 0 0 0 0 0 0 0 0 0 0
dram_eff_bins: 0 0 0 0 0 0 0 0 0 0
mrqq: max=16 avg=4.75173
Memory Partition 5: 
Cache L2_bank_010:
MSHR contents

Cache L2_bank_011:
MSHR contents

In Dram Latency Queue (total = 0): 
DRAM[5]: 16 bks, busW=4 BL=8 CL=12, tRRD=2 tCCD=6, tRCD=12 tRAS=28 tRP=12 tRC=40
n_cmd=200246 n_nop=162716 n_act=3679 n_pre=3663 n_req=15358 n_rd=14276 n_write=15912 bw_util=0.3015
n_activity=111461 dram_eff=0.5417
bk0: 774a 171700i bk1: 798a 170971i bk2: 750a 169473i bk3: 752a 170616i bk4: 792a 166246i bk5: 810a 163944i bk6: 1000a 157082i bk7: 948a 157538i bk8: 1002a 158083i bk9: 980a 158952i bk10: 1040a 155866i bk11: 1030a 156067i bk12: 984a 155870i bk13: 976a 153741i bk14: 804a 161894i bk15: 836a 162430i 
dram_util_bins: 0 0 0 0 0 0 0 0 0 0
dram_eff_bins: 0 0 0 0 0 0 0 0 0 0
mrqq: max=16 avg=4.42585

========= L2 cache stats =========
L2_cache_bank[0]: Access = 6903, Miss = 3618, Miss_rate = 0.524, Pending_hits = 142, Reservation_fails = 1194
L2_cache_bank[1]: Access = 7021, Miss = 3725, Miss_rate = 0.531, Pending_hits = 125, Reservation_fails = 846
L2_cache_bank[2]: Access = 6781, Miss = 3625, Miss_rate = 0.535, Pending_hits = 131, Reservation_fails = 967
L2_cache_bank[3]: Access = 6807, Miss = 3626, Miss_rate = 0.533, Pending_hits = 143, Reservation_fails = 516
L2_cache_bank[4]: Access = 6628, Miss = 3528, Miss_rate = 0.532, Pending_hits = 118, Reservation_fails = 880
L2_cache_bank[5]: Access = 6831, Miss = 3454, Miss_rate = 0.506, Pending_hits = 133, Reservation_fails = 551
L2_cache_bank[6]: Access = 6808, Miss = 3540, Miss_rate = 0.520, Pending_hits = 124, Reservation_fails = 1003
L2_cache_bank[7]: Access = 6986, Miss = 3549, Miss_rate = 0.508, Pending_hits = 101, Reservation_fails = 656
L2_cache_bank[8]: Access = 6942, Miss = 3477, Miss_rate = 0.501, Pending_hits = 137, Reservation_fails = 891
L2_cache_bank[9]: Access = 6684, Miss = 3516, Miss_rate = 0.526, Pending_hits = 123, Reservation_fails = 748
L2_cache_bank[10]: Access = 6937, Miss = 3573, Miss_rate = 0.515, Pending_hits = 114, Reservation_fails = 897
L2_cache_bank[11]: Access = 6833, Miss = 3565, Miss_rate = 0.522, Pending_hits = 130, Reservation_fails = 384
L2_total_cache_accesses = 82161
L2_total_cache_misses = 42796
L2_total_cache_miss_rate = 0.5209
L2_total_cache_pending_hits = 1521
L2_total_cache_reservation_fails = 9533
L2_total_cache_breakdown:
	L2_cache_stats_breakdown[GLOBAL_ACC_R][HIT] = 2281
	L2_cache_stats_breakdown[GLOBAL_ACC_R][HIT_RESERVED] = 73
	L2_cache_stats_breakdown[GLOBAL_ACC_R][MISS] = 1422
	L2_cache_stats_breakdown[GLOBAL_ACC_R][RESERVATION_FAIL] = 27
	L2_cache_stats_breakdown[LOCAL_ACC_R][HIT] = 4168
	L2_cache_stats_breakdown[LOCAL_ACC_R][HIT_RESERVED] = 348
	L2_cache_stats_breakdown[LOCAL_ACC_R][MISS] = 2846
	L2_cache_stats_breakdown[LOCAL_ACC_R][RESERVATION_FAIL] = 5
	L2_cache_stats_breakdown[CONST_ACC_R][HIT] = 22
	L2_cache_stats_breakdown[CONST_ACC_R][HIT_RESERVED] = 6
	L2_cache_stats_breakdown[CONST_ACC_R][MISS] = 2
	L2_cache_stats_breakdown[CONST_ACC_R][RESERVATION_FAIL] = 353
	L2_cache_stats_breakdown[GLOBAL_ACC_W][HIT] = 5326
	L2_cache_stats_breakdown[GLOBAL_ACC_W][HIT_RESERVED] = 814
	L2_cache_stats_breakdown[GLOBAL_ACC_W][MISS] = 2052
	L2_cache_stats_breakdown[GLOBAL_ACC_W][RESERVATION_FAIL] = 111
	L2_cache_stats_breakdown[LOCAL_ACC_W][HIT] = 12205
	L2_cache_stats_breakdown[LOCAL_ACC_W][HIT_RESERVED] = 32
	L2_cache_stats_breakdown[LOCAL_ACC_W][MISS] = 32320
	L2_cache_stats_breakdown[LOCAL_ACC_W][RESERVATION_FAIL] = 814
	L2_cache_stats_breakdown[L1_WRBK_ACC][HIT] = 942
	L2_cache_stats_breakdown[L1_WRBK_ACC][MISS] = 4048
	L2_cache_stats_breakdown[L1_WRBK_ACC][RESERVATION_FAIL] = 47
	L2_cache_stats_breakdown[INST_ACC_R][HIT] = 12900
	L2_cache_stats_breakdown[INST_ACC_R][HIT_RESERVED] = 248
	L2_cache_stats_breakdown[INST_ACC_R][MISS] = 106
	L2_cache_stats_breakdown[INST_ACC_R][RESERVATION_FAIL] = 8176
L2_cache_data_port_util = 0.078
L2_cache_fill_port_util = 0.094

icnt_total_pkts_mem_to_simt=174799
icnt_total_pkts_simt_to_mem=293527
LD_mem_lat_dist  0 0 0 0 0 0 0 0 0 0 0 0 0 0 0 0 0 0 0 0 0 0 0 0 0 0 0
ST_mem_lat_dist  0 0 0 0 0 0 0 0 0 0 0 0 0 0 0 0 0 0 0 0 0 0 0 0 0 0 0
----------------------------Interconnect-DETAILS--------------------------------
Class 0:
Packet latency average = 19.7604
	minimum = 6
	maximum = 759
Network latency average = 15.283
	minimum = 6
	maximum = 582
Slowest packet = 1359
Flit latency average = 14.519
	minimum = 6
	maximum = 578
Slowest flit = 5056
Fragmentation average = 0.273642
	minimum = 0
	maximum = 553
Injected packet rate average = 0.0388999
	minimum = 0.0336911 (at node 3)
	maximum = 0.0435261 (at node 16)
Accepted packet rate average = 0.0388999
	minimum = 0.0316739 (at node 10)
	maximum = 0.0462815 (at node 16)
Injected flit rate average = 0.114339
	minimum = 0.0897088 (at node 19)
	maximum = 0.143314 (at node 0)
Accepted flit rate average= 0.114339
	minimum = 0.0614626 (at node 3)
	maximum = 0.165331 (at node 15)
Injected packet length average = 2.93931
Accepted packet length average = 2.93931
Total in-flight flits = 0 (0 measured)
====== Overall Traffic Statistics ======
====== Traffic class 0 ======
Packet latency average = 19.7604 (1 samples)
	minimum = 6 (1 samples)
	maximum = 759 (1 samples)
Network latency average = 15.283 (1 samples)
	minimum = 6 (1 samples)
	maximum = 582 (1 samples)
Flit latency average = 14.519 (1 samples)
	minimum = 6 (1 samples)
	maximum = 578 (1 samples)
Fragmentation average = 0.273642 (1 samples)
	minimum = 0 (1 samples)
	maximum = 553 (1 samples)
Injected packet rate average = 0.0388999 (1 samples)
	minimum = 0.0336911 (1 samples)
	maximum = 0.0435261 (1 samples)
Accepted packet rate average = 0.0388999 (1 samples)
	minimum = 0.0316739 (1 samples)
	maximum = 0.0462815 (1 samples)
Injected flit rate average = 0.114339 (1 samples)
	minimum = 0.0897088 (1 samples)
	maximum = 0.143314 (1 samples)
Accepted flit rate average = 0.114339 (1 samples)
	minimum = 0.0614626 (1 samples)
	maximum = 0.165331 (1 samples)
Injected packet size average = 2.93931 (1 samples)
Accepted packet size average = 2.93931 (1 samples)
Hops average = 1 (1 samples)
----------------------------END-of-Interconnect-DETAILS-------------------------
GPGPU-Sim API: Stream Manager State


gpgpu_simulation_time = 0 days, 0 hrs, 2 min, 49 sec (169 sec)
gpgpu_simulation_rate = 370903 (inst/sec)
gpgpu_simulation_rate = 897 (cycle/sec)
GPGPU-Sim: detected inactive GPU simulation thread

checksum=75ef40cb5b8e
Kernel Time: 167898.625000 
