

        *** GPGPU-Sim Simulator Version 3.2.2  [build 0] ***


GPGPU-Sim PTX: simulation mode 0 (can change with PTX_SIM_MODE_FUNC environment variable:
               1=functional simulation only, 0=detailed performance simulator)
GPGPU-Sim: Configuration options:

-network_mode                           1 # Interconnection network mode
-inter_config_file   config_fermi_islip.icnt # Interconnection network config file
-gpgpu_ptx_use_cuobjdump                    1 # Use cuobjdump to extract ptx and sass from binaries
-gpgpu_experimental_lib_support                    0 # Try to extract code from cuda libraries [Broken because of unknown cudaGetExportTable]
-gpgpu_ptx_convert_to_ptxplus                    0 # Convert SASS (native ISA) to ptxplus and run ptxplus
-gpgpu_ptx_force_max_capability                   20 # Force maximum compute capability
-gpgpu_ptx_inst_debug_to_file                    0 # Dump executed instructions' debug information to file
-gpgpu_ptx_inst_debug_file       inst_debug.txt # Executed instructions' debug output file
-gpgpu_ptx_inst_debug_thread_uid                    1 # Thread UID for executed instructions' debug output
-gpgpu_simd_model                       1 # 1 = post-dominator
-gpgpu_shader_core_pipeline              1536:32 # shader core pipeline config, i.e., {<nthread>:<warpsize>}
-gpgpu_tex_cache:l1  4:128:24,L:R:m:N:L,F:128:4,128:2 # per-shader L1 texture cache  (READ-ONLY) config  {<nsets>:<bsize>:<assoc>,<rep>:<wr>:<alloc>:<wr_alloc>,<mshr>:<N>:<merge>,<mq>:<rf>}
-gpgpu_const_cache:l1 64:64:2,L:R:f:N:L,A:2:32,4 # per-shader L1 constant memory cache  (READ-ONLY) config  {<nsets>:<bsize>:<assoc>,<rep>:<wr>:<alloc>:<wr_alloc>,<mshr>:<N>:<merge>,<mq>} 
-gpgpu_cache:il1     4:128:4,L:R:f:N:L,A:2:32,4 # shader L1 instruction cache config  {<nsets>:<bsize>:<assoc>,<rep>:<wr>:<alloc>:<wr_alloc>,<mshr>:<N>:<merge>,<mq>} 
-gpgpu_cache:dl1     16:128:4,L:L:m:N:L,A:32:8,8 # per-shader L1 data cache config  {<nsets>:<bsize>:<assoc>,<rep>:<wr>:<alloc>:<wr_alloc>,<mshr>:<N>:<merge>,<mq> | none}
-gpgpu_cache:dl1PrefL1                 none # per-shader L1 data cache config  {<nsets>:<bsize>:<assoc>,<rep>:<wr>:<alloc>:<wr_alloc>,<mshr>:<N>:<merge>,<mq> | none}
-gpgpu_cache:dl1PreShared                 none # per-shader L1 data cache config  {<nsets>:<bsize>:<assoc>,<rep>:<wr>:<alloc>:<wr_alloc>,<mshr>:<N>:<merge>,<mq> | none}
-gmem_skip_L1D                          0 # global memory access skip L1D cache (implements -Xptxas -dlcm=cg, default=no skip)
-gpgpu_perfect_mem                      0 # enable perfect memory mode (no cache miss)
-n_regfile_gating_group                    4 # group of lanes that should be read/written together)
-gpgpu_clock_gated_reg_file                    0 # enable clock gated reg file for power calculations
-gpgpu_clock_gated_lanes                    0 # enable clock gated lanes for power calculations
-gpgpu_shader_registers                32768 # Number of registers per shader core. Limits number of concurrent CTAs. (default 8192)
-gpgpu_shader_cta                       8 # Maximum number of concurrent CTAs in shader (default 8)
-gpgpu_num_cta_barriers                   16 # Maximum number of named barriers per CTA (default 16)
-gpgpu_n_clusters                      15 # number of processing clusters
-gpgpu_n_cores_per_cluster                    1 # number of simd cores per cluster
-gpgpu_n_cluster_ejection_buffer_size                    8 # number of packets in ejection buffer
-gpgpu_n_ldst_response_buffer_size                    2 # number of response packets in ld/st unit ejection buffer
-gpgpu_shmem_size                   16384 # Size of shared memory per shader core (default 16kB)
-gpgpu_shmem_size                   49152 # Size of shared memory per shader core (default 16kB)
-gpgpu_shmem_size_PrefL1                16384 # Size of shared memory per shader core (default 16kB)
-gpgpu_shmem_size_PrefShared                16384 # Size of shared memory per shader core (default 16kB)
-gpgpu_shmem_num_banks                   32 # Number of banks in the shared memory in each shader core (default 16)
-gpgpu_shmem_limited_broadcast                    0 # Limit shared memory to do one broadcast per cycle (default on)
-gpgpu_shmem_warp_parts                    1 # Number of portions a warp is divided into for shared memory bank conflict check 
-gpgpu_warpdistro_shader                   -1 # Specify which shader core to collect the warp size distribution from
-gpgpu_warp_issue_shader                    0 # Specify which shader core to collect the warp issue distribution from
-gpgpu_local_mem_map                    1 # Mapping from local memory space address to simulated GPU physical address space (default = enabled)
-gpgpu_num_reg_banks                   16 # Number of register banks (default = 8)
-gpgpu_reg_bank_use_warp_id                    0 # Use warp ID in mapping registers to banks (default = off)
-gpgpu_operand_collector_num_units_sp                    6 # number of collector units (default = 4)
-gpgpu_operand_collector_num_units_sfu                    8 # number of collector units (default = 4)
-gpgpu_operand_collector_num_units_mem                    2 # number of collector units (default = 2)
-gpgpu_operand_collector_num_units_gen                    0 # number of collector units (default = 0)
-gpgpu_operand_collector_num_in_ports_sp                    2 # number of collector unit in ports (default = 1)
-gpgpu_operand_collector_num_in_ports_sfu                    1 # number of collector unit in ports (default = 1)
-gpgpu_operand_collector_num_in_ports_mem                    1 # number of collector unit in ports (default = 1)
-gpgpu_operand_collector_num_in_ports_gen                    0 # number of collector unit in ports (default = 0)
-gpgpu_operand_collector_num_out_ports_sp                    2 # number of collector unit in ports (default = 1)
-gpgpu_operand_collector_num_out_ports_sfu                    1 # number of collector unit in ports (default = 1)
-gpgpu_operand_collector_num_out_ports_mem                    1 # number of collector unit in ports (default = 1)
-gpgpu_operand_collector_num_out_ports_gen                    0 # number of collector unit in ports (default = 0)
-gpgpu_coalesce_arch                   13 # Coalescing arch (default = 13, anything else is off for now)
-gpgpu_num_sched_per_core                    2 # Number of warp schedulers per core
-gpgpu_max_insn_issue_per_warp                    1 # Max number of instructions that can be issued per warp in one cycle by scheduler
-gpgpu_simt_core_sim_order                    1 # Select the simulation order of cores in a cluster (0=Fix, 1=Round-Robin)
-gpgpu_pipeline_widths        2,1,1,2,1,1,2 # Pipeline widths ID_OC_SP,ID_OC_SFU,ID_OC_MEM,OC_EX_SP,OC_EX_SFU,OC_EX_MEM,EX_WB
-gpgpu_num_sp_units                     2 # Number of SP units (default=1)
-gpgpu_num_sfu_units                    1 # Number of SF units (default=1)
-gpgpu_num_mem_units                    1 # Number if ldst units (default=1) WARNING: not hooked up to anything
-gpgpu_scheduler                      gto # Scheduler configuration: < lrr | gto | two_level_active > If two_level_active:<num_active_warps>:<inner_prioritization>:<outer_prioritization>For complete list of prioritization values see shader.h enum scheduler_prioritization_typeDefault: gto
-gpgpu_dram_scheduler                    1 # 0 = fifo, 1 = FR-FCFS (defaul)
-gpgpu_dram_partition_queues              8:8:8:8 # i2$:$2d:d2$:$2i
-l2_ideal                               0 # Use a ideal L2 cache that always hit
-gpgpu_cache:dl2     64:128:8,L:B:m:W:L,A:32:4,4:0,32 # unified banked L2 data cache config  {<nsets>:<bsize>:<assoc>,<rep>:<wr>:<alloc>:<wr_alloc>,<mshr>:<N>:<merge>,<mq>}
-gpgpu_cache:dl2_texture_only                    0 # L2 cache used for texture only
-gpgpu_n_mem                            6 # number of memory modules (e.g. memory controllers) in gpu
-gpgpu_n_sub_partition_per_mchannel                    2 # number of memory subpartition in each memory module
-gpgpu_n_mem_per_ctrlr                    2 # number of memory chips per memory controller
-gpgpu_memlatency_stat                   14 # track and display latency statistics 0x2 enables MC, 0x4 enables queue logs
-gpgpu_frfcfs_dram_sched_queue_size                   16 # 0 = unlimited (default); # entries per chip
-gpgpu_dram_return_queue_size                  116 # 0 = unlimited (default); # entries per chip
-gpgpu_dram_buswidth                    4 # default = 4 bytes (8 bytes per cycle at DDR)
-gpgpu_dram_burst_length                    8 # Burst length of each DRAM request (default = 4 data bus cycle)
-dram_data_command_freq_ratio                    4 # Frequency ratio between DRAM data bus and command bus (default = 2 times, i.e. DDR)
-gpgpu_dram_timing_opt nbk=16:CCD=2:RRD=6:RCD=12:RAS=28:RP=12:RC=40: CL=12:WL=4:CDLR=5:WR=12:nbkgrp=4:CCDL=3:RTPL=2 # DRAM timing parameters = {nbk:tCCD:tRRD:tRCD:tRAS:tRP:tRC:CL:WL:tCDLR:tWR:nbkgrp:tCCDL:tRTPL}
-rop_latency                          120 # ROP queue latency (default 85)
-dram_latency                         100 # DRAM latency (default 30)
-gpgpu_mem_addr_mapping dramid@8;00000000.00000000.00000000.00000000.0000RRRR.RRRRRRRR.BBBCCCCB.CCSSSSSS # mapping memory address to dram model {dramid@<start bit>;<memory address map>}
-gpgpu_mem_addr_test                    0 # run sweep test to check address mapping for aliased address
-gpgpu_mem_address_mask                    1 # 0 = old addressing mask, 1 = new addressing mask, 2 = new add. mask + flipped bank sel and chip sel bits
-gpuwattch_xml_file  gpuwattch_gtx480.xml # GPUWattch XML file
-power_simulation_enabled                    0 # Turn on power simulator (1=On, 0=Off)
-power_per_cycle_dump                    0 # Dump detailed power output each cycle
-power_trace_enabled                    0 # produce a file for the power trace (1=On, 0=Off)
-power_trace_zlevel                     6 # Compression level of the power trace output log (0=no comp, 9=highest)
-steady_power_levels_enabled                    0 # produce a file for the steady power levels (1=On, 0=Off)
-steady_state_definition                  8:4 # allowed deviation:number of samples
-gpgpu_max_cycle                        0 # terminates gpu simulation early (0 = no limit)
-gpgpu_max_insn                         0 # terminates gpu simulation early (0 = no limit)
-gpgpu_max_cta                          0 # terminates gpu simulation early (0 = no limit)
-gpgpu_runtime_stat                   500 # display runtime statistics such as dram utilization {<freq>:<flag>}
-liveness_message_freq                    1 # Minimum number of seconds between simulation liveness messages (0 = always print)
-gpgpu_flush_l1_cache                    0 # Flush L1 cache at the end of each kernel call
-gpgpu_flush_l2_cache                    0 # Flush L2 cache at the end of each kernel call
-gpgpu_deadlock_detect                    1 # Stop the simulation at deadlock (1=on (default), 0=off)
-gpgpu_ptx_instruction_classification                    0 # if enabled will classify ptx instruction types per kernel (Max 255 kernels now)
-gpgpu_ptx_sim_mode                     0 # Select between Performance (default) or Functional simulation (1)
-gpgpu_clock_domains 700.0:700.0:700.0:924.0 # Clock Domain Frequencies in MhZ {<Core Clock>:<ICNT Clock>:<L2 Clock>:<DRAM Clock>}
-gpgpu_max_concurrent_kernel                    8 # maximum kernels that can run concurrently on GPU
-gpgpu_cflog_interval                    0 # Interval between each snapshot in control flow logger
-visualizer_enabled                     0 # Turn on visualizer output (1=On, 0=Off)
-visualizer_outputfile                 NULL # Specifies the output log file for visualizer
-visualizer_zlevel                      6 # Compression level of the visualizer output log (0=no comp, 9=highest)
-trace_enabled                          0 # Turn on traces
-trace_components                    none # comma seperated list of traces to enable. Complete list found in trace_streams.tup. Default none
-trace_sampling_core                    0 # The core which is printed using CORE_DPRINTF. Default 0
-trace_sampling_memory_partition                   -1 # The memory partition which is printed using MEMPART_DPRINTF. Default -1 (i.e. all)
-enable_ptx_file_line_stats                    1 # Turn on PTX source line statistic profiling. (1 = On)
-ptx_line_stats_filename gpgpu_inst_stats.txt # Output file for PTX source line statistics.
-save_embedded_ptx                      0 # saves ptx files embedded in binary as <n>.ptx
-keep                                   0 # keep intermediate files created by GPGPU-Sim when interfacing with external programs
-gpgpu_ptx_save_converted_ptxplus                    0 # Saved converted ptxplus to a file
-ptx_opcode_latency_int         4,13,4,5,145 # Opcode latencies for integers <ADD,MAX,MUL,MAD,DIV>Default 1,1,19,25,145
-ptx_opcode_latency_fp          4,13,4,5,39 # Opcode latencies for single precision floating points <ADD,MAX,MUL,MAD,DIV>Default 1,1,1,1,30
-ptx_opcode_latency_dp         8,19,8,8,330 # Opcode latencies for double precision floating points <ADD,MAX,MUL,MAD,DIV>Default 8,8,8,8,335
-ptx_opcode_initiation_int            1,2,2,1,8 # Opcode initiation intervals for integers <ADD,MAX,MUL,MAD,DIV>Default 1,1,4,4,32
-ptx_opcode_initiation_fp            1,2,1,1,4 # Opcode initiation intervals for single precision floating points <ADD,MAX,MUL,MAD,DIV>Default 1,1,1,1,5
-ptx_opcode_initiation_dp         8,16,8,8,130 # Opcode initiation intervals for double precision floating points <ADD,MAX,MUL,MAD,DIV>Default 8,8,8,8,130
DRAM Timing Options:
nbk                                    16 # number of banks
CCD                                     2 # column to column delay
RRD                                     6 # minimal delay between activation of rows in different banks
RCD                                    12 # row to column delay
RAS                                    28 # time needed to activate row
RP                                     12 # time needed to precharge (deactivate) row
RC                                     40 # row cycle time
CDLR                                    5 # switching from write to read (changes tWTR)
WR                                     12 # last data-in to row precharge
CL                                     12 # CAS latency
WL                                      4 # Write latency
nbkgrp                                  4 # number of bank groups
CCDL                                    3 # column to column delay between accesses to different bank groups
RTPL                                    2 # read to precharge delay between accesses to different bank groups
Total number of memory sub partition = 12
addr_dec_mask[CHIP]  = 0000000000000000 	high:64 low:0
addr_dec_mask[BK]    = 000000000000e100 	high:16 low:8
addr_dec_mask[ROW]   = 000000000fff0000 	high:28 low:16
addr_dec_mask[COL]   = 0000000000001eff 	high:13 low:0
addr_dec_mask[BURST] = 000000000000003f 	high:6 low:0
sub_partition_id_mask = 0000000000000100
GPGPU-Sim uArch: clock freqs: 700000000.000000:700000000.000000:700000000.000000:924000000.000000
GPGPU-Sim uArch: clock periods: 0.00000000142857142857:0.00000000142857142857:0.00000000142857142857:0.00000000108225108225
*** Initializing Memory Statistics ***
GPGPU-Sim uArch: interconnect node map (shaderID+MemID to icntID)
GPGPU-Sim uArch: Memory nodes ID start from index: 15
GPGPU-Sim uArch:    0   1   2   3   4
GPGPU-Sim uArch:    5   6   7   8   9
GPGPU-Sim uArch:   10  11  12  13  14
GPGPU-Sim uArch:   15  16  17  18  19
GPGPU-Sim uArch:   20  21  22  23  24
GPGPU-Sim uArch:   25  26
GPGPU-Sim uArch: interconnect node reverse map (icntID to shaderID+MemID)
GPGPU-Sim uArch: Memory nodes start from ID: 15
GPGPU-Sim uArch:    0   1   2   3   4
GPGPU-Sim uArch:    5   6   7   8   9
GPGPU-Sim uArch:   10  11  12  13  14
GPGPU-Sim uArch:   15  16  17  18  19
GPGPU-Sim uArch:   20  21  22  23  24
GPGPU-Sim uArch:   25  26
3d035f1c221dff4c1b059f7701634ea5  /sciclone/data20/adwait/applications/benchmarks/CUDA/SCP/gpgpu_ptx_sim__SCP
GPGPU-Sim uArch: performance model initialization complete.
GPGPU-Sim PTX: __cudaRegisterFatBinary, fat_cubin_handle = 1, filename=scalarProd.cu
self exe links to: /sciclone/data20/adwait/applications/benchmarks/CUDA/SCP/gpgpu_ptx_sim__SCP
Running md5sum using "md5sum /sciclone/data20/adwait/applications/benchmarks/CUDA/SCP/gpgpu_ptx_sim__SCP "
Parsing file _cuobjdump_complete_output_3Vy3Yv
######### cuobjdump parser ########
## Adding new section ELF
Adding arch: sm_20
Adding identifier: scalarProd.cu
## Adding new section PTX
Adding ptx filename: _cuobjdump_1.ptx
Adding arch: sm_20
Adding identifier: scalarProd.cu
Done parsing!!!
GPGPU-Sim PTX: __cudaRegisterFunction _Z13scalarProdGPUPfS_S_ii : hostFun 0x0x404ea1, fat_cubin_handle = 1
GPGPU-Sim PTX: allocating shared region for "__cuda___cuda_local_var_42258_35_non_const_accumResult32" from 0x0 to 0x1000 (shared memory space)
GPGPU-Sim PTX: instruction assembly for function '_Z13scalarProdGPUPfS_S_ii'...   done.
GPGPU-Sim PTX: finding reconvergence points for '_Z13scalarProdGPUPfS_S_ii'...
GPGPU-Sim PTX: Finding dominators for '_Z13scalarProdGPUPfS_S_ii'...
GPGPU-Sim PTX: Finding immediate dominators for '_Z13scalarProdGPUPfS_S_ii'...
GPGPU-Sim PTX: Finding postdominators for '_Z13scalarProdGPUPfS_S_ii'...
GPGPU-Sim PTX: Finding immediate postdominators for '_Z13scalarProdGPUPfS_S_ii'...
GPGPU-Sim PTX: pre-decoding instructions for '_Z13scalarProdGPUPfS_S_ii'...
GPGPU-Sim PTX: reconvergence points for _Z13scalarProdGPUPfS_S_ii...
GPGPU-Sim PTX:  1 (potential) branch divergence @  PC=0x020 (_1.ptx:70) @%p1 bra $Lt_0_6146;
GPGPU-Sim PTX:    immediate post dominator      @  PC=0x308 (_1.ptx:187) exit;
GPGPU-Sim PTX:  2 (potential) branch divergence @  PC=0x068 (_1.ptx:81) @!%p2 bra $Lt_0_6914;
GPGPU-Sim PTX:    immediate post dominator      @  PC=0x1d8 (_1.ptx:137) mov.s32 %r25, 512;
GPGPU-Sim PTX:  3 (potential) branch divergence @  PC=0x0e0 (_1.ptx:99) @%p4 bra $Lt_0_12290;
GPGPU-Sim PTX:    immediate post dominator      @  PC=0x1b0 (_1.ptx:131) st.shared.f32 [%rd6+0], %f1;
GPGPU-Sim PTX:  4 (potential) branch divergence @  PC=0x198 (_1.ptx:125) @%p5 bra $Lt_0_8194;
GPGPU-Sim PTX:    immediate post dominator      @  PC=0x1a0 (_1.ptx:126) bra.uni $Lt_0_7682;
GPGPU-Sim PTX:  5 (potential) branch divergence @  PC=0x1a0 (_1.ptx:126) bra.uni $Lt_0_7682;
GPGPU-Sim PTX:    immediate post dominator      @  PC=0x1b0 (_1.ptx:131) st.shared.f32 [%rd6+0], %f1;
GPGPU-Sim PTX:  6 (potential) branch divergence @  PC=0x1d0 (_1.ptx:135) @%p6 bra $Lt_0_7426;
GPGPU-Sim PTX:    immediate post dominator      @  PC=0x1d8 (_1.ptx:137) mov.s32 %r25, 512;
GPGPU-Sim PTX:  7 (potential) branch divergence @  PC=0x1f0 (_1.ptx:143) @%p7 bra $Lt_0_9730;
GPGPU-Sim PTX:    immediate post dominator      @  PC=0x298 (_1.ptx:169) shr.s32 %r25, %r25, 1;
GPGPU-Sim PTX:  8 (potential) branch divergence @  PC=0x290 (_1.ptx:166) @%p8 bra $Lt_0_10242;
GPGPU-Sim PTX:    immediate post dominator      @  PC=0x298 (_1.ptx:169) shr.s32 %r25, %r25, 1;
GPGPU-Sim PTX:  9 (potential) branch divergence @  PC=0x2b0 (_1.ptx:172) @%p9 bra $Lt_0_9474;
GPGPU-Sim PTX:    immediate post dominator      @  PC=0x2b8 (_1.ptx:173) @!%p3 bra $Lt_0_11010;
GPGPU-Sim PTX: 10 (potential) branch divergence @  PC=0x2b8 (_1.ptx:173) @!%p3 bra $Lt_0_11010;
GPGPU-Sim PTX:    immediate post dominator      @  PC=0x2f0 (_1.ptx:182) add.u32 %r2, %r2, %r8;
GPGPU-Sim PTX: 11 (potential) branch divergence @  PC=0x300 (_1.ptx:184) @%p10 bra $Lt_0_6658;
GPGPU-Sim PTX:    immediate post dominator      @  PC=0x308 (_1.ptx:187) exit;
GPGPU-Sim PTX: ... end of reconvergence points for _Z13scalarProdGPUPfS_S_ii
GPGPU-Sim PTX: ... done pre-decoding instructions for '_Z13scalarProdGPUPfS_S_ii'.
GPGPU-Sim PTX: finished parsing EMBEDDED .ptx file _1.ptx
Adding _cuobjdump_1.ptx with cubin handle 1
GPGPU-Sim PTX: extracting embedded .ptx to temporary file "_ptx_Z398pu"
Running: cat _ptx_Z398pu | sed 's/.version 1.5/.version 1.4/' | sed 's/, texmode_independent//' | sed 's/\(\.extern \.const\[1\] .b8 \w\+\)\[\]/\1\[1\]/' | sed 's/const\[.\]/const\[0\]/g' > _ptx2_5puDlt
GPGPU-Sim PTX: generating ptxinfo using "$CUDA_INSTALL_PATH/bin/ptxas --gpu-name=sm_20 -v _ptx2_5puDlt --output-file  /dev/null 2> _ptx_Z398puinfo"
GPGPU-Sim PTX: Kernel '_Z13scalarProdGPUPfS_S_ii' : regs=18, lmem=0, smem=4096, cmem=68
GPGPU-Sim PTX: removing ptxinfo using "rm -f _ptx_Z398pu _ptx2_5puDlt _ptx_Z398puinfo"
GPGPU-Sim PTX: loading globals with explicit initializers... 
GPGPU-Sim PTX: finished loading globals (0 bytes total).
GPGPU-Sim PTX: loading constants with explicit initializers...  done.
Initializing data...
...allocating CPU memory.
...allocating GPU memory.
...generating input data in CPU mem.
...copying input data to GPU mem.
Data init done.
Executing GPU kernel...
GPGPU-Sim: synchronize waiting for inactive GPU simulation
GPGPU-Sim API: Stream Manager State
GPGPU-Sim: detected inactive GPU simulation thread

GPGPU-Sim PTX: cudaLaunch for 0x0x404ea1 (mode=performance simulation) on stream 0
GPGPU-Sim PTX: pushing kernel '_Z13scalarProdGPUPfS_S_ii' to stream 0, gridDim= (128,1,1) blockDim = (256,1,1) 
kernel '_Z13scalarProdGPUPfS_S_ii' transfer to GPU hardware scheduler
GPGPU-Sim uArch: Shader 1 bind to kernel 1 '_Z13scalarProdGPUPfS_S_ii'
GPGPU-Sim uArch: CTA/core = 6, limited by: threads regs
GPGPU-Sim uArch: core:  1, cta: 0 initialized @(1,0)
GPGPU-Sim uArch: Shader 2 bind to kernel 1 '_Z13scalarProdGPUPfS_S_ii'
GPGPU-Sim uArch: core:  2, cta: 0 initialized @(1,0)
GPGPU-Sim uArch: Shader 3 bind to kernel 1 '_Z13scalarProdGPUPfS_S_ii'
GPGPU-Sim uArch: core:  3, cta: 0 initialized @(1,0)
GPGPU-Sim uArch: Shader 4 bind to kernel 1 '_Z13scalarProdGPUPfS_S_ii'
GPGPU-Sim uArch: core:  4, cta: 0 initialized @(1,0)
GPGPU-Sim uArch: Shader 5 bind to kernel 1 '_Z13scalarProdGPUPfS_S_ii'
GPGPU-Sim uArch: core:  5, cta: 0 initialized @(1,0)
GPGPU-Sim uArch: Shader 6 bind to kernel 1 '_Z13scalarProdGPUPfS_S_ii'
GPGPU-Sim uArch: core:  6, cta: 0 initialized @(1,0)
GPGPU-Sim uArch: Shader 7 bind to kernel 1 '_Z13scalarProdGPUPfS_S_ii'
GPGPU-Sim uArch: core:  7, cta: 0 initialized @(1,0)
GPGPU-Sim uArch: Shader 8 bind to kernel 1 '_Z13scalarProdGPUPfS_S_ii'
GPGPU-Sim uArch: core:  8, cta: 0 initialized @(1,0)
GPGPU-Sim uArch: Shader 9 bind to kernel 1 '_Z13scalarProdGPUPfS_S_ii'
GPGPU-Sim uArch: core:  9, cta: 0 initialized @(1,0)
GPGPU-Sim uArch: Shader 10 bind to kernel 1 '_Z13scalarProdGPUPfS_S_ii'
GPGPU-Sim uArch: core: 10, cta: 0 initialized @(1,0)
GPGPU-Sim uArch: Shader 11 bind to kernel 1 '_Z13scalarProdGPUPfS_S_ii'
GPGPU-Sim uArch: core: 11, cta: 0 initialized @(1,0)
GPGPU-Sim uArch: Shader 12 bind to kernel 1 '_Z13scalarProdGPUPfS_S_ii'
GPGPU-Sim uArch: core: 12, cta: 0 initialized @(1,0)
GPGPU-Sim uArch: Shader 13 bind to kernel 1 '_Z13scalarProdGPUPfS_S_ii'
GPGPU-Sim uArch: core: 13, cta: 0 initialized @(1,0)
GPGPU-Sim uArch: Shader 14 bind to kernel 1 '_Z13scalarProdGPUPfS_S_ii'
GPGPU-Sim uArch: core: 14, cta: 0 initialized @(1,0)
GPGPU-Sim uArch: Shader 0 bind to kernel 1 '_Z13scalarProdGPUPfS_S_ii'
GPGPU-Sim uArch: core:  0, cta: 0 initialized @(1,0)
GPGPU-Sim uArch: core:  1, cta: 1 initialized @(2,0)
GPGPU-Sim uArch: core:  2, cta: 1 initialized @(2,0)
GPGPU-Sim uArch: core:  3, cta: 1 initialized @(2,0)
GPGPU-Sim uArch: core:  4, cta: 1 initialized @(2,0)
GPGPU-Sim uArch: core:  5, cta: 1 initialized @(2,0)
GPGPU-Sim uArch: core:  6, cta: 1 initialized @(2,0)
GPGPU-Sim uArch: core:  7, cta: 1 initialized @(2,0)
GPGPU-Sim uArch: core:  8, cta: 1 initialized @(2,0)
GPGPU-Sim uArch: core:  9, cta: 1 initialized @(2,0)
GPGPU-Sim uArch: core: 10, cta: 1 initialized @(2,0)
GPGPU-Sim uArch: core: 11, cta: 1 initialized @(2,0)
GPGPU-Sim uArch: core: 12, cta: 1 initialized @(2,0)
GPGPU-Sim uArch: core: 13, cta: 1 initialized @(2,0)
GPGPU-Sim uArch: core: 14, cta: 1 initialized @(2,0)
GPGPU-Sim uArch: core:  0, cta: 1 initialized @(2,0)
GPGPU-Sim uArch: core:  1, cta: 2 initialized @(3,0)
GPGPU-Sim uArch: core:  2, cta: 2 initialized @(3,0)
GPGPU-Sim uArch: core:  3, cta: 2 initialized @(3,0)
GPGPU-Sim uArch: core:  4, cta: 2 initialized @(3,0)
GPGPU-Sim uArch: core:  5, cta: 2 initialized @(3,0)
GPGPU-Sim uArch: core:  6, cta: 2 initialized @(3,0)
GPGPU-Sim uArch: core:  7, cta: 2 initialized @(3,0)
GPGPU-Sim uArch: core:  8, cta: 2 initialized @(3,0)
GPGPU-Sim uArch: core:  9, cta: 2 initialized @(3,0)
GPGPU-Sim uArch: core: 10, cta: 2 initialized @(3,0)
GPGPU-Sim uArch: core: 11, cta: 2 initialized @(3,0)
GPGPU-Sim uArch: core: 12, cta: 2 initialized @(3,0)
GPGPU-Sim uArch: core: 13, cta: 2 initialized @(3,0)
GPGPU-Sim uArch: core: 14, cta: 2 initialized @(3,0)
GPGPU-Sim uArch: core:  0, cta: 2 initialized @(3,0)
GPGPU-Sim uArch: core:  1, cta: 3 initialized @(4,0)
GPGPU-Sim uArch: core:  2, cta: 3 initialized @(4,0)
GPGPU-Sim uArch: core:  3, cta: 3 initialized @(4,0)
GPGPU-Sim uArch: core:  4, cta: 3 initialized @(4,0)
GPGPU-Sim uArch: core:  5, cta: 3 initialized @(4,0)
GPGPU-Sim uArch: core:  6, cta: 3 initialized @(4,0)
GPGPU-Sim uArch: core:  7, cta: 3 initialized @(4,0)
GPGPU-Sim uArch: core:  8, cta: 3 initialized @(4,0)
GPGPU-Sim uArch: core:  9, cta: 3 initialized @(4,0)
GPGPU-Sim uArch: core: 10, cta: 3 initialized @(4,0)
GPGPU-Sim uArch: core: 11, cta: 3 initialized @(4,0)
GPGPU-Sim uArch: core: 12, cta: 3 initialized @(4,0)
GPGPU-Sim uArch: core: 13, cta: 3 initialized @(4,0)
GPGPU-Sim uArch: core: 14, cta: 3 initialized @(4,0)
GPGPU-Sim uArch: core:  0, cta: 3 initialized @(4,0)
GPGPU-Sim uArch: core:  1, cta: 4 initialized @(5,0)
GPGPU-Sim uArch: core:  2, cta: 4 initialized @(5,0)
GPGPU-Sim uArch: core:  3, cta: 4 initialized @(5,0)
GPGPU-Sim uArch: core:  4, cta: 4 initialized @(5,0)
GPGPU-Sim uArch: core:  5, cta: 4 initialized @(5,0)
GPGPU-Sim uArch: core:  6, cta: 4 initialized @(5,0)
GPGPU-Sim uArch: core:  7, cta: 4 initialized @(5,0)
GPGPU-Sim uArch: core:  8, cta: 4 initialized @(5,0)
GPGPU-Sim uArch: core:  9, cta: 4 initialized @(5,0)
GPGPU-Sim uArch: core: 10, cta: 4 initialized @(5,0)
GPGPU-Sim uArch: core: 11, cta: 4 initialized @(5,0)
GPGPU-Sim uArch: core: 12, cta: 4 initialized @(5,0)
GPGPU-Sim uArch: core: 13, cta: 4 initialized @(5,0)
GPGPU-Sim uArch: core: 14, cta: 4 initialized @(5,0)
GPGPU-Sim uArch: core:  0, cta: 4 initialized @(5,0)
GPGPU-Sim uArch: core:  1, cta: 5 initialized @(6,0)
GPGPU-Sim uArch: core:  2, cta: 5 initialized @(6,0)
GPGPU-Sim uArch: core:  3, cta: 5 initialized @(6,0)
GPGPU-Sim uArch: core:  4, cta: 5 initialized @(6,0)
GPGPU-Sim uArch: core:  5, cta: 5 initialized @(6,0)
GPGPU-Sim uArch: core:  6, cta: 5 initialized @(6,0)
GPGPU-Sim uArch: core:  7, cta: 5 initialized @(6,0)
GPGPU-Sim uArch: core:  8, cta: 5 initialized @(6,0)
GPGPU-Sim uArch: core:  9, cta: 5 initialized @(6,0)
GPGPU-Sim uArch: core: 10, cta: 5 initialized @(6,0)
GPGPU-Sim uArch: core: 11, cta: 5 initialized @(6,0)
GPGPU-Sim uArch: core: 12, cta: 5 initialized @(6,0)
GPGPU-Sim uArch: core: 13, cta: 5 initialized @(6,0)
GPGPU-Sim uArch: core: 14, cta: 5 initialized @(6,0)
GPGPU-Sim uArch: core:  0, cta: 5 initialized @(6,0)
GPGPU-Sim uArch: cycles simulated: 500  inst.: 46080 (ipc=92.2) sim_rate=23040 (inst/sec) elapsed = 0:0:00:02 / Sun Mar  6 05:31:02 2016
GPGPU-Sim PTX: 100000 instructions simulated : ctaid=(83,0,0) tid=(63,0,0)
GPGPU-Sim PTX: 200000 instructions simulated : ctaid=(41,0,0) tid=(95,0,0)
GPGPU-Sim PTX: 300000 instructions simulated : ctaid=(86,0,0) tid=(95,0,0)
GPGPU-Sim uArch: cycles simulated: 1000  inst.: 341728 (ipc=341.7) sim_rate=113909 (inst/sec) elapsed = 0:0:00:03 / Sun Mar  6 05:31:03 2016
GPGPU-Sim PTX: 400000 instructions simulated : ctaid=(80,0,0) tid=(191,0,0)
GPGPU-Sim PTX: 500000 instructions simulated : ctaid=(69,0,0) tid=(95,0,0)
GPGPU-Sim PTX: 600000 instructions simulated : ctaid=(35,0,0) tid=(31,0,0)
GPGPU-Sim PTX: 700000 instructions simulated : ctaid=(68,0,0) tid=(223,0,0)
GPGPU-Sim PTX: 800000 instructions simulated : ctaid=(12,0,0) tid=(223,0,0)
GPGPU-Sim PTX: 900000 instructions simulated : ctaid=(13,0,0) tid=(31,0,0)
GPGPU-Sim uArch: cycles simulated: 2000  inst.: 882528 (ipc=441.3) sim_rate=220632 (inst/sec) elapsed = 0:0:00:04 / Sun Mar  6 05:31:04 2016
GPGPU-Sim PTX: 1000000 instructions simulated : ctaid=(37,0,0) tid=(31,0,0)
GPGPU-Sim PTX: 1100000 instructions simulated : ctaid=(4,0,0) tid=(95,0,0)
GPGPU-Sim uArch: cycles simulated: 4000  inst.: 1109664 (ipc=277.4) sim_rate=221932 (inst/sec) elapsed = 0:0:00:05 / Sun Mar  6 05:31:05 2016
GPGPU-Sim PTX: 1200000 instructions simulated : ctaid=(25,0,0) tid=(95,0,0)
GPGPU-Sim PTX: 1300000 instructions simulated : ctaid=(4,0,0) tid=(159,0,0)
GPGPU-Sim PTX: 1400000 instructions simulated : ctaid=(15,0,0) tid=(223,0,0)
GPGPU-Sim uArch: cycles simulated: 5000  inst.: 1319136 (ipc=263.8) sim_rate=219856 (inst/sec) elapsed = 0:0:00:06 / Sun Mar  6 05:31:06 2016
GPGPU-Sim PTX: 1500000 instructions simulated : ctaid=(6,0,0) tid=(63,0,0)
GPGPU-Sim PTX: 1600000 instructions simulated : ctaid=(11,0,0) tid=(95,0,0)
GPGPU-Sim PTX: 1700000 instructions simulated : ctaid=(16,0,0) tid=(255,0,0)
GPGPU-Sim uArch: cycles simulated: 6500  inst.: 1608704 (ipc=247.5) sim_rate=229814 (inst/sec) elapsed = 0:0:00:07 / Sun Mar  6 05:31:07 2016
GPGPU-Sim PTX: 1800000 instructions simulated : ctaid=(27,0,0) tid=(95,0,0)
GPGPU-Sim PTX: 1900000 instructions simulated : ctaid=(31,0,0) tid=(255,0,0)
GPGPU-Sim PTX: 2000000 instructions simulated : ctaid=(43,0,0) tid=(63,0,0)
GPGPU-Sim uArch: cycles simulated: 8000  inst.: 1964928 (ipc=245.6) sim_rate=245616 (inst/sec) elapsed = 0:0:00:08 / Sun Mar  6 05:31:08 2016
GPGPU-Sim PTX: 2100000 instructions simulated : ctaid=(24,0,0) tid=(31,0,0)
GPGPU-Sim PTX: 2200000 instructions simulated : ctaid=(11,0,0) tid=(223,0,0)
GPGPU-Sim uArch: cycles simulated: 9000  inst.: 2159200 (ipc=239.9) sim_rate=239911 (inst/sec) elapsed = 0:0:00:09 / Sun Mar  6 05:31:09 2016
GPGPU-Sim PTX: 2300000 instructions simulated : ctaid=(24,0,0) tid=(127,0,0)
GPGPU-Sim PTX: 2400000 instructions simulated : ctaid=(32,0,0) tid=(159,0,0)
GPGPU-Sim PTX: 2500000 instructions simulated : ctaid=(38,0,0) tid=(223,0,0)
GPGPU-Sim PTX: 2600000 instructions simulated : ctaid=(37,0,0) tid=(223,0,0)
GPGPU-Sim uArch: cycles simulated: 10500  inst.: 2504832 (ipc=238.6) sim_rate=250483 (inst/sec) elapsed = 0:0:00:10 / Sun Mar  6 05:31:10 2016
GPGPU-Sim PTX: 2700000 instructions simulated : ctaid=(12,0,0) tid=(31,0,0)
GPGPU-Sim PTX: 2800000 instructions simulated : ctaid=(32,0,0) tid=(31,0,0)
GPGPU-Sim uArch: cycles simulated: 11500  inst.: 2717920 (ipc=236.3) sim_rate=247083 (inst/sec) elapsed = 0:0:00:11 / Sun Mar  6 05:31:11 2016
GPGPU-Sim PTX: 2900000 instructions simulated : ctaid=(27,0,0) tid=(255,0,0)
GPGPU-Sim PTX: 3000000 instructions simulated : ctaid=(38,0,0) tid=(223,0,0)
GPGPU-Sim PTX: 3100000 instructions simulated : ctaid=(18,0,0) tid=(127,0,0)
GPGPU-Sim uArch: cycles simulated: 13000  inst.: 3035616 (ipc=233.5) sim_rate=252968 (inst/sec) elapsed = 0:0:00:12 / Sun Mar  6 05:31:12 2016
GPGPU-Sim PTX: 3200000 instructions simulated : ctaid=(54,0,0) tid=(127,0,0)
GPGPU-Sim PTX: 3300000 instructions simulated : ctaid=(6,0,0) tid=(63,0,0)
GPGPU-Sim PTX: 3400000 instructions simulated : ctaid=(34,0,0) tid=(63,0,0)
GPGPU-Sim uArch: cycles simulated: 14000  inst.: 3259200 (ipc=232.8) sim_rate=250707 (inst/sec) elapsed = 0:0:00:13 / Sun Mar  6 05:31:13 2016
GPGPU-Sim PTX: 3500000 instructions simulated : ctaid=(24,0,0) tid=(63,0,0)
GPGPU-Sim PTX: 3600000 instructions simulated : ctaid=(33,0,0) tid=(63,0,0)
GPGPU-Sim PTX: 3700000 instructions simulated : ctaid=(75,0,0) tid=(95,0,0)
GPGPU-Sim uArch: cycles simulated: 15000  inst.: 3522144 (ipc=234.8) sim_rate=251581 (inst/sec) elapsed = 0:0:00:14 / Sun Mar  6 05:31:14 2016
GPGPU-Sim PTX: 3800000 instructions simulated : ctaid=(88,0,0) tid=(223,0,0)
GPGPU-Sim PTX: 3900000 instructions simulated : ctaid=(50,0,0) tid=(223,0,0)
GPGPU-Sim PTX: 4000000 instructions simulated : ctaid=(76,0,0) tid=(95,0,0)
GPGPU-Sim PTX: 4100000 instructions simulated : ctaid=(47,0,0) tid=(63,0,0)
GPGPU-Sim PTX: 4200000 instructions simulated : ctaid=(5,0,0) tid=(47,0,0)
GPGPU-Sim uArch: cycles simulated: 16500  inst.: 4044460 (ipc=245.1) sim_rate=269630 (inst/sec) elapsed = 0:0:00:15 / Sun Mar  6 05:31:15 2016
GPGPU-Sim PTX: 4300000 instructions simulated : ctaid=(77,0,0) tid=(151,0,0)
GPGPU-Sim PTX: 4400000 instructions simulated : ctaid=(20,0,0) tid=(189,0,0)
GPGPU-Sim PTX: 4500000 instructions simulated : ctaid=(1,0,0) tid=(209,0,0)
GPGPU-Sim PTX: 4600000 instructions simulated : ctaid=(60,0,0) tid=(223,0,0)
GPGPU-Sim uArch: cycles simulated: 17500  inst.: 4441986 (ipc=253.8) sim_rate=277624 (inst/sec) elapsed = 0:0:00:16 / Sun Mar  6 05:31:16 2016
GPGPU-Sim PTX: 4700000 instructions simulated : ctaid=(42,0,0) tid=(101,0,0)
GPGPU-Sim PTX: 4800000 instructions simulated : ctaid=(5,0,0) tid=(125,0,0)
GPGPU-Sim PTX: 4900000 instructions simulated : ctaid=(35,0,0) tid=(121,0,0)
GPGPU-Sim PTX: 5000000 instructions simulated : ctaid=(23,0,0) tid=(158,0,0)
GPGPU-Sim PTX: 5100000 instructions simulated : ctaid=(35,0,0) tid=(238,0,0)
GPGPU-Sim uArch: cycles simulated: 18500  inst.: 4904116 (ipc=265.1) sim_rate=288477 (inst/sec) elapsed = 0:0:00:17 / Sun Mar  6 05:31:17 2016
GPGPU-Sim PTX: 5200000 instructions simulated : ctaid=(8,0,0) tid=(157,0,0)
GPGPU-Sim PTX: 5300000 instructions simulated : ctaid=(66,0,0) tid=(17,0,0)
GPGPU-Sim PTX: 5400000 instructions simulated : ctaid=(71,0,0) tid=(203,0,0)
GPGPU-Sim uArch: cycles simulated: 19000  inst.: 5151582 (ipc=271.1) sim_rate=286199 (inst/sec) elapsed = 0:0:00:18 / Sun Mar  6 05:31:18 2016
GPGPU-Sim PTX: 5500000 instructions simulated : ctaid=(2,0,0) tid=(221,0,0)
GPGPU-Sim PTX: 5600000 instructions simulated : ctaid=(46,0,0) tid=(172,0,0)
GPGPU-Sim PTX: 5700000 instructions simulated : ctaid=(24,0,0) tid=(6,0,0)
GPGPU-Sim PTX: 5800000 instructions simulated : ctaid=(0,0,0) tid=(80,0,0)
GPGPU-Sim uArch: cycles simulated: 20000  inst.: 5570979 (ipc=278.5) sim_rate=293209 (inst/sec) elapsed = 0:0:00:19 / Sun Mar  6 05:31:19 2016
GPGPU-Sim PTX: 5900000 instructions simulated : ctaid=(23,0,0) tid=(163,0,0)
GPGPU-Sim PTX: 6000000 instructions simulated : ctaid=(5,0,0) tid=(79,0,0)
GPGPU-Sim PTX: 6100000 instructions simulated : ctaid=(10,0,0) tid=(61,0,0)
GPGPU-Sim PTX: 6200000 instructions simulated : ctaid=(11,0,0) tid=(199,0,0)
GPGPU-Sim uArch: cycles simulated: 21000  inst.: 5922529 (ipc=282.0) sim_rate=296126 (inst/sec) elapsed = 0:0:00:20 / Sun Mar  6 05:31:20 2016
GPGPU-Sim PTX: 6300000 instructions simulated : ctaid=(57,0,0) tid=(45,0,0)
GPGPU-Sim PTX: 6400000 instructions simulated : ctaid=(39,0,0) tid=(120,0,0)
GPGPU-Sim PTX: 6500000 instructions simulated : ctaid=(76,0,0) tid=(69,0,0)
GPGPU-Sim uArch: cycles simulated: 22000  inst.: 6282360 (ipc=285.6) sim_rate=299160 (inst/sec) elapsed = 0:0:00:21 / Sun Mar  6 05:31:21 2016
GPGPU-Sim PTX: 6600000 instructions simulated : ctaid=(13,0,0) tid=(132,0,0)
GPGPU-Sim PTX: 6700000 instructions simulated : ctaid=(55,0,0) tid=(35,0,0)
GPGPU-Sim uArch: cycles simulated: 22500  inst.: 6450618 (ipc=286.7) sim_rate=293209 (inst/sec) elapsed = 0:0:00:22 / Sun Mar  6 05:31:22 2016
GPGPU-Sim PTX: 6800000 instructions simulated : ctaid=(83,0,0) tid=(131,0,0)
GPGPU-Sim PTX: 6900000 instructions simulated : ctaid=(68,0,0) tid=(115,0,0)
GPGPU-Sim PTX: 7000000 instructions simulated : ctaid=(3,0,0) tid=(199,0,0)
GPGPU-Sim uArch: cycles simulated: 23500  inst.: 6770030 (ipc=288.1) sim_rate=294349 (inst/sec) elapsed = 0:0:00:23 / Sun Mar  6 05:31:23 2016
GPGPU-Sim PTX: 7100000 instructions simulated : ctaid=(67,0,0) tid=(115,0,0)
GPGPU-Sim PTX: 7200000 instructions simulated : ctaid=(58,0,0) tid=(42,0,0)
GPGPU-Sim uArch: cycles simulated: 24000  inst.: 6940455 (ipc=289.2) sim_rate=289185 (inst/sec) elapsed = 0:0:00:24 / Sun Mar  6 05:31:24 2016
GPGPU-Sim PTX: 7300000 instructions simulated : ctaid=(63,0,0) tid=(215,0,0)
GPGPU-Sim PTX: 7400000 instructions simulated : ctaid=(34,0,0) tid=(145,0,0)
GPGPU-Sim PTX: 7500000 instructions simulated : ctaid=(31,0,0) tid=(17,0,0)
GPGPU-Sim PTX: 7600000 instructions simulated : ctaid=(25,0,0) tid=(61,0,0)
GPGPU-Sim uArch: cycles simulated: 25000  inst.: 7297669 (ipc=291.9) sim_rate=291906 (inst/sec) elapsed = 0:0:00:25 / Sun Mar  6 05:31:25 2016
GPGPU-Sim PTX: 7700000 instructions simulated : ctaid=(20,0,0) tid=(113,0,0)
GPGPU-Sim PTX: 7800000 instructions simulated : ctaid=(22,0,0) tid=(27,0,0)
GPGPU-Sim uArch: cycles simulated: 25500  inst.: 7459007 (ipc=292.5) sim_rate=286884 (inst/sec) elapsed = 0:0:00:26 / Sun Mar  6 05:31:26 2016
GPGPU-Sim PTX: 7900000 instructions simulated : ctaid=(22,0,0) tid=(201,0,0)
GPGPU-Sim uArch: cycles simulated: 26000  inst.: 7615958 (ipc=292.9) sim_rate=282072 (inst/sec) elapsed = 0:0:00:27 / Sun Mar  6 05:31:27 2016
GPGPU-Sim PTX: 8000000 instructions simulated : ctaid=(20,0,0) tid=(224,0,0)
GPGPU-Sim PTX: 8100000 instructions simulated : ctaid=(32,0,0) tid=(78,0,0)
GPGPU-Sim PTX: 8200000 instructions simulated : ctaid=(21,0,0) tid=(139,0,0)
GPGPU-Sim PTX: 8300000 instructions simulated : ctaid=(39,0,0) tid=(253,0,0)
GPGPU-Sim uArch: cycles simulated: 27000  inst.: 7935119 (ipc=293.9) sim_rate=283397 (inst/sec) elapsed = 0:0:00:28 / Sun Mar  6 05:31:28 2016
GPGPU-Sim PTX: 8400000 instructions simulated : ctaid=(25,0,0) tid=(6,0,0)
GPGPU-Sim uArch: cycles simulated: 27500  inst.: 8076677 (ipc=293.7) sim_rate=278506 (inst/sec) elapsed = 0:0:00:29 / Sun Mar  6 05:31:29 2016
GPGPU-Sim PTX: 8500000 instructions simulated : ctaid=(41,0,0) tid=(207,0,0)
GPGPU-Sim PTX: 8600000 instructions simulated : ctaid=(10,0,0) tid=(230,0,0)
GPGPU-Sim PTX: 8700000 instructions simulated : ctaid=(44,0,0) tid=(225,0,0)
GPGPU-Sim uArch: cycles simulated: 28500  inst.: 8363785 (ipc=293.5) sim_rate=278792 (inst/sec) elapsed = 0:0:00:30 / Sun Mar  6 05:31:30 2016
GPGPU-Sim PTX: 8800000 instructions simulated : ctaid=(2,0,0) tid=(77,0,0)
GPGPU-Sim PTX: 8900000 instructions simulated : ctaid=(13,0,0) tid=(161,0,0)
GPGPU-Sim uArch: cycles simulated: 29000  inst.: 8509917 (ipc=293.4) sim_rate=274513 (inst/sec) elapsed = 0:0:00:31 / Sun Mar  6 05:31:31 2016
GPGPU-Sim PTX: 9000000 instructions simulated : ctaid=(18,0,0) tid=(230,0,0)
GPGPU-Sim PTX: 9100000 instructions simulated : ctaid=(38,0,0) tid=(79,0,0)
GPGPU-Sim uArch: cycles simulated: 29500  inst.: 8738760 (ipc=296.2) sim_rate=273086 (inst/sec) elapsed = 0:0:00:32 / Sun Mar  6 05:31:32 2016
GPGPU-Sim PTX: 9200000 instructions simulated : ctaid=(7,0,0) tid=(65,0,0)
GPGPU-Sim PTX: 9300000 instructions simulated : ctaid=(55,0,0) tid=(255,0,0)
GPGPU-Sim PTX: 9400000 instructions simulated : ctaid=(50,0,0) tid=(76,0,0)
GPGPU-Sim PTX: 9500000 instructions simulated : ctaid=(0,0,0) tid=(252,0,0)
GPGPU-Sim PTX: 9600000 instructions simulated : ctaid=(41,0,0) tid=(93,0,0)
GPGPU-Sim PTX: 9700000 instructions simulated : ctaid=(64,0,0) tid=(188,0,0)
GPGPU-Sim uArch: cycles simulated: 30500  inst.: 9283023 (ipc=304.4) sim_rate=281303 (inst/sec) elapsed = 0:0:00:33 / Sun Mar  6 05:31:33 2016
GPGPU-Sim PTX: 9800000 instructions simulated : ctaid=(46,0,0) tid=(191,0,0)
GPGPU-Sim PTX: 9900000 instructions simulated : ctaid=(13,0,0) tid=(85,0,0)
GPGPU-Sim uArch: Shader 2 finished CTA #0 (30910,0), 5 CTAs running
GPGPU-Sim uArch: core:  2, cta: 0 initialized @(30911,0)
GPGPU-Sim uArch: cycles simulated: 31000  inst.: 9505786 (ipc=306.6) sim_rate=279581 (inst/sec) elapsed = 0:0:00:34 / Sun Mar  6 05:31:34 2016
GPGPU-Sim PTX: 10000000 instructions simulated : ctaid=(7,0,0) tid=(17,0,0)
GPGPU-Sim PTX: 10100000 instructions simulated : ctaid=(9,0,0) tid=(83,0,0)
GPGPU-Sim uArch: cycles simulated: 31500  inst.: 9732829 (ipc=309.0) sim_rate=278080 (inst/sec) elapsed = 0:0:00:35 / Sun Mar  6 05:31:35 2016
GPGPU-Sim PTX: 10200000 instructions simulated : ctaid=(31,0,0) tid=(132,0,0)
GPGPU-Sim uArch: Shader 6 finished CTA #0 (31688,0), 5 CTAs running
GPGPU-Sim uArch: core:  6, cta: 0 initialized @(31689,0)
GPGPU-Sim uArch: Shader 13 finished CTA #0 (31715,0), 5 CTAs running
GPGPU-Sim uArch: core: 13, cta: 0 initialized @(31716,0)
GPGPU-Sim PTX: 10300000 instructions simulated : ctaid=(45,0,0) tid=(194,0,0)
GPGPU-Sim PTX: 10400000 instructions simulated : ctaid=(9,0,0) tid=(134,0,0)
GPGPU-Sim uArch: Shader 0 finished CTA #0 (31925,0), 5 CTAs running
GPGPU-Sim uArch: core:  0, cta: 0 initialized @(31926,0)
GPGPU-Sim uArch: cycles simulated: 32000  inst.: 9968002 (ipc=311.5) sim_rate=276888 (inst/sec) elapsed = 0:0:00:36 / Sun Mar  6 05:31:36 2016
GPGPU-Sim uArch: Shader 14 finished CTA #0 (32027,0), 5 CTAs running
GPGPU-Sim uArch: core: 14, cta: 0 initialized @(32028,0)
GPGPU-Sim PTX: 10500000 instructions simulated : ctaid=(15,0,0) tid=(131,0,0)
GPGPU-Sim uArch: Shader 12 finished CTA #0 (32111,0), 5 CTAs running
GPGPU-Sim uArch: core: 12, cta: 0 initialized @(32112,0)
GPGPU-Sim PTX: 10600000 instructions simulated : ctaid=(75,0,0) tid=(63,0,0)
GPGPU-Sim uArch: Shader 4 finished CTA #0 (32307,0), 5 CTAs running
GPGPU-Sim uArch: core:  4, cta: 0 initialized @(32308,0)
GPGPU-Sim PTX: 10700000 instructions simulated : ctaid=(10,0,0) tid=(62,0,0)
GPGPU-Sim uArch: Shader 8 finished CTA #0 (32457,0), 5 CTAs running
GPGPU-Sim uArch: core:  8, cta: 0 initialized @(32458,0)
GPGPU-Sim uArch: Shader 9 finished CTA #0 (32493,0), 5 CTAs running
GPGPU-Sim uArch: core:  9, cta: 0 initialized @(32494,0)
GPGPU-Sim uArch: cycles simulated: 32500  inst.: 10259111 (ipc=315.7) sim_rate=277273 (inst/sec) elapsed = 0:0:00:37 / Sun Mar  6 05:31:37 2016
GPGPU-Sim PTX: 10800000 instructions simulated : ctaid=(19,0,0) tid=(48,0,0)
GPGPU-Sim uArch: Shader 5 finished CTA #0 (32600,0), 5 CTAs running
GPGPU-Sim uArch: core:  5, cta: 0 initialized @(32601,0)
GPGPU-Sim uArch: Shader 2 finished CTA #1 (32628,0), 5 CTAs running
GPGPU-Sim uArch: core:  2, cta: 1 initialized @(32629,0)
GPGPU-Sim PTX: 10900000 instructions simulated : ctaid=(24,0,0) tid=(200,0,0)
GPGPU-Sim PTX: 11000000 instructions simulated : ctaid=(39,0,0) tid=(140,0,0)
GPGPU-Sim uArch: Shader 10 finished CTA #0 (32975,0), 5 CTAs running
GPGPU-Sim uArch: core: 10, cta: 0 initialized @(32976,0)
GPGPU-Sim PTX: 11100000 instructions simulated : ctaid=(20,0,0) tid=(216,0,0)
GPGPU-Sim uArch: cycles simulated: 33000  inst.: 10583787 (ipc=320.7) sim_rate=278520 (inst/sec) elapsed = 0:0:00:38 / Sun Mar  6 05:31:38 2016
GPGPU-Sim uArch: Shader 11 finished CTA #0 (33027,0), 5 CTAs running
GPGPU-Sim uArch: core: 11, cta: 0 initialized @(33028,0)
GPGPU-Sim uArch: Shader 1 finished CTA #0 (33126,0), 5 CTAs running
GPGPU-Sim uArch: core:  1, cta: 0 initialized @(33127,0)
GPGPU-Sim PTX: 11200000 instructions simulated : ctaid=(31,0,0) tid=(27,0,0)
GPGPU-Sim PTX: 11300000 instructions simulated : ctaid=(6,0,0) tid=(5,0,0)
GPGPU-Sim uArch: Shader 3 finished CTA #0 (33336,0), 5 CTAs running
GPGPU-Sim uArch: core:  3, cta: 0 initialized @(33337,0)
GPGPU-Sim PTX: 11400000 instructions simulated : ctaid=(25,0,0) tid=(191,0,0)
GPGPU-Sim uArch: cycles simulated: 33500  inst.: 10886542 (ipc=325.0) sim_rate=279142 (inst/sec) elapsed = 0:0:00:39 / Sun Mar  6 05:31:39 2016
GPGPU-Sim PTX: 11500000 instructions simulated : ctaid=(38,0,0) tid=(110,0,0)
GPGPU-Sim PTX: 11600000 instructions simulated : ctaid=(25,0,0) tid=(242,0,0)
GPGPU-Sim uArch: cycles simulated: 34000  inst.: 11125483 (ipc=327.2) sim_rate=278137 (inst/sec) elapsed = 0:0:00:40 / Sun Mar  6 05:31:40 2016
GPGPU-Sim PTX: 11700000 instructions simulated : ctaid=(35,0,0) tid=(165,0,0)
GPGPU-Sim uArch: Shader 1 finished CTA #1 (34296,0), 5 CTAs running
GPGPU-Sim uArch: core:  1, cta: 1 initialized @(34297,0)
GPGPU-Sim PTX: 11800000 instructions simulated : ctaid=(43,0,0) tid=(137,0,0)
GPGPU-Sim uArch: Shader 3 finished CTA #1 (34346,0), 5 CTAs running
GPGPU-Sim uArch: core:  3, cta: 1 initialized @(34347,0)
GPGPU-Sim uArch: cycles simulated: 34500  inst.: 11337425 (ipc=328.6) sim_rate=276522 (inst/sec) elapsed = 0:0:00:41 / Sun Mar  6 05:31:41 2016
GPGPU-Sim PTX: 11900000 instructions simulated : ctaid=(36,0,0) tid=(34,0,0)
GPGPU-Sim uArch: Shader 0 finished CTA #1 (34675,0), 5 CTAs running
GPGPU-Sim uArch: core:  0, cta: 1 initialized @(34676,0)
GPGPU-Sim PTX: 12000000 instructions simulated : ctaid=(21,0,0) tid=(10,0,0)
GPGPU-Sim uArch: Shader 6 finished CTA #1 (34874,0), 5 CTAs running
GPGPU-Sim uArch: core:  6, cta: 1 initialized @(34875,0)
GPGPU-Sim PTX: 12100000 instructions simulated : ctaid=(72,0,0) tid=(217,0,0)
GPGPU-Sim uArch: Shader 10 finished CTA #1 (34997,0), 5 CTAs running
GPGPU-Sim uArch: core: 10, cta: 1 initialized @(34998,0)
GPGPU-Sim uArch: cycles simulated: 35000  inst.: 11546658 (ipc=329.9) sim_rate=274920 (inst/sec) elapsed = 0:0:00:42 / Sun Mar  6 05:31:42 2016
GPGPU-Sim uArch: Shader 13 finished CTA #1 (35024,0), 5 CTAs running
GPGPU-Sim uArch: core: 13, cta: 1 initialized @(35025,0)
GPGPU-Sim uArch: Shader 14 finished CTA #1 (35046,0), 5 CTAs running
GPGPU-Sim uArch: core: 14, cta: 1 initialized @(35047,0)
GPGPU-Sim uArch: Shader 12 finished CTA #1 (35135,0), 5 CTAs running
GPGPU-Sim uArch: core: 12, cta: 1 initialized @(35136,0)
GPGPU-Sim uArch: Shader 11 finished CTA #1 (35147,0), 5 CTAs running
GPGPU-Sim uArch: core: 11, cta: 1 initialized @(35148,0)
GPGPU-Sim PTX: 12200000 instructions simulated : ctaid=(76,0,0) tid=(55,0,0)
GPGPU-Sim uArch: Shader 7 finished CTA #0 (35243,0), 5 CTAs running
GPGPU-Sim uArch: core:  7, cta: 0 initialized @(35244,0)
GPGPU-Sim PTX: 12300000 instructions simulated : ctaid=(19,0,0) tid=(57,0,0)
GPGPU-Sim uArch: cycles simulated: 35500  inst.: 11771090 (ipc=331.6) sim_rate=273746 (inst/sec) elapsed = 0:0:00:43 / Sun Mar  6 05:31:43 2016
GPGPU-Sim PTX: 12400000 instructions simulated : ctaid=(38,0,0) tid=(128,0,0)
GPGPU-Sim uArch: Shader 8 finished CTA #1 (35641,0), 5 CTAs running
GPGPU-Sim uArch: core:  8, cta: 1 initialized @(35642,0)
GPGPU-Sim uArch: Shader 5 finished CTA #1 (35818,0), 5 CTAs running
GPGPU-Sim uArch: core:  5, cta: 1 initialized @(35819,0)
GPGPU-Sim PTX: 12500000 instructions simulated : ctaid=(112,0,0) tid=(79,0,0)
GPGPU-Sim uArch: cycles simulated: 36000  inst.: 11981387 (ipc=332.8) sim_rate=272304 (inst/sec) elapsed = 0:0:00:44 / Sun Mar  6 05:31:44 2016
GPGPU-Sim PTX: 12600000 instructions simulated : ctaid=(110,0,0) tid=(203,0,0)
GPGPU-Sim uArch: Shader 4 finished CTA #1 (36187,0), 5 CTAs running
GPGPU-Sim uArch: core:  4, cta: 1 initialized @(36188,0)
GPGPU-Sim PTX: 12700000 instructions simulated : ctaid=(112,0,0) tid=(153,0,0)
GPGPU-Sim uArch: Shader 7 finished CTA #1 (36449,0), 5 CTAs running
GPGPU-Sim uArch: core:  7, cta: 1 initialized @(36450,0)
GPGPU-Sim uArch: cycles simulated: 36500  inst.: 12179955 (ipc=333.7) sim_rate=270665 (inst/sec) elapsed = 0:0:00:45 / Sun Mar  6 05:31:45 2016
GPGPU-Sim PTX: 12800000 instructions simulated : ctaid=(70,0,0) tid=(69,0,0)
GPGPU-Sim PTX: 12900000 instructions simulated : ctaid=(46,0,0) tid=(231,0,0)
GPGPU-Sim PTX: 13000000 instructions simulated : ctaid=(79,0,0) tid=(189,0,0)
GPGPU-Sim uArch: cycles simulated: 37000  inst.: 12392893 (ipc=334.9) sim_rate=269410 (inst/sec) elapsed = 0:0:00:46 / Sun Mar  6 05:31:46 2016
GPGPU-Sim PTX: 13100000 instructions simulated : ctaid=(94,0,0) tid=(216,0,0)
GPGPU-Sim PTX: 13200000 instructions simulated : ctaid=(35,0,0) tid=(193,0,0)
GPGPU-Sim uArch: cycles simulated: 37500  inst.: 12622195 (ipc=336.6) sim_rate=268557 (inst/sec) elapsed = 0:0:00:47 / Sun Mar  6 05:31:47 2016
GPGPU-Sim PTX: 13300000 instructions simulated : ctaid=(105,0,0) tid=(34,0,0)
GPGPU-Sim uArch: Shader 9 finished CTA #1 (37744,0), 5 CTAs running
GPGPU-Sim uArch: core:  9, cta: 1 initialized @(37745,0)
GPGPU-Sim PTX: 13400000 instructions simulated : ctaid=(95,0,0) tid=(3,0,0)
GPGPU-Sim PTX: 13500000 instructions simulated : ctaid=(41,0,0) tid=(172,0,0)
GPGPU-Sim uArch: Shader 0 finished CTA #2 (37984,0), 5 CTAs running
GPGPU-Sim uArch: core:  0, cta: 2 initialized @(37985,0)
GPGPU-Sim uArch: cycles simulated: 38000  inst.: 12889031 (ipc=339.2) sim_rate=268521 (inst/sec) elapsed = 0:0:00:48 / Sun Mar  6 05:31:48 2016
GPGPU-Sim PTX: 13600000 instructions simulated : ctaid=(32,0,0) tid=(184,0,0)
GPGPU-Sim PTX: 13700000 instructions simulated : ctaid=(58,0,0) tid=(112,0,0)
GPGPU-Sim uArch: cycles simulated: 38500  inst.: 13144741 (ipc=341.4) sim_rate=268260 (inst/sec) elapsed = 0:0:00:49 / Sun Mar  6 05:31:49 2016
GPGPU-Sim PTX: 13800000 instructions simulated : ctaid=(45,0,0) tid=(165,0,0)
GPGPU-Sim PTX: 13900000 instructions simulated : ctaid=(60,0,0) tid=(242,0,0)
GPGPU-Sim PTX: 14000000 instructions simulated : ctaid=(40,0,0) tid=(92,0,0)
GPGPU-Sim uArch: cycles simulated: 39000  inst.: 13386198 (ipc=343.2) sim_rate=267723 (inst/sec) elapsed = 0:0:00:50 / Sun Mar  6 05:31:50 2016
GPGPU-Sim PTX: 14100000 instructions simulated : ctaid=(85,0,0) tid=(203,0,0)
GPGPU-Sim PTX: 14200000 instructions simulated : ctaid=(30,0,0) tid=(5,0,0)
GPGPU-Sim uArch: Shader 2 finished CTA #2 (39490,0), 5 CTAs running
GPGPU-Sim uArch: core:  2, cta: 2 initialized @(39491,0)
GPGPU-Sim uArch: cycles simulated: 39500  inst.: 13576683 (ipc=343.7) sim_rate=266209 (inst/sec) elapsed = 0:0:00:51 / Sun Mar  6 05:31:51 2016
GPGPU-Sim PTX: 14300000 instructions simulated : ctaid=(66,0,0) tid=(62,0,0)
GPGPU-Sim PTX: 14400000 instructions simulated : ctaid=(37,0,0) tid=(61,0,0)
GPGPU-Sim uArch: cycles simulated: 40000  inst.: 13753260 (ipc=343.8) sim_rate=264485 (inst/sec) elapsed = 0:0:00:52 / Sun Mar  6 05:31:52 2016
GPGPU-Sim PTX: 14500000 instructions simulated : ctaid=(47,0,0) tid=(42,0,0)
GPGPU-Sim PTX: 14600000 instructions simulated : ctaid=(61,0,0) tid=(104,0,0)
GPGPU-Sim uArch: Shader 6 finished CTA #2 (40468,0), 5 CTAs running
GPGPU-Sim uArch: core:  6, cta: 2 initialized @(40469,0)
GPGPU-Sim uArch: cycles simulated: 40500  inst.: 13955904 (ipc=344.6) sim_rate=263318 (inst/sec) elapsed = 0:0:00:53 / Sun Mar  6 05:31:53 2016
GPGPU-Sim uArch: Shader 3 finished CTA #2 (40596,0), 5 CTAs running
GPGPU-Sim uArch: core:  3, cta: 2 initialized @(40597,0)
GPGPU-Sim uArch: Shader 4 finished CTA #2 (40664,0), 5 CTAs running
GPGPU-Sim uArch: core:  4, cta: 2 initialized @(40665,0)
GPGPU-Sim uArch: Shader 10 finished CTA #2 (40670,0), 5 CTAs running
GPGPU-Sim uArch: core: 10, cta: 2 initialized @(40671,0)
GPGPU-Sim PTX: 14700000 instructions simulated : ctaid=(68,0,0) tid=(196,0,0)
GPGPU-Sim uArch: Shader 5 finished CTA #2 (40876,0), 5 CTAs running
GPGPU-Sim uArch: core:  5, cta: 2 initialized @(40877,0)
GPGPU-Sim uArch: Shader 12 finished CTA #2 (40926,0), 5 CTAs running
GPGPU-Sim uArch: core: 12, cta: 2 initialized @(40927,0)
GPGPU-Sim uArch: Shader 1 finished CTA #2 (40984,0), 5 CTAs running
GPGPU-Sim uArch: cycles simulated: 41000  inst.: 14115610 (ipc=344.3) sim_rate=261400 (inst/sec) elapsed = 0:0:00:54 / Sun Mar  6 05:31:54 2016
GPGPU-Sim PTX: 14800000 instructions simulated : ctaid=(56,0,0) tid=(209,0,0)
GPGPU-Sim uArch: Shader 13 finished CTA #2 (41064,0), 5 CTAs running
GPGPU-Sim PTX: 14900000 instructions simulated : ctaid=(93,0,0) tid=(90,0,0)
GPGPU-Sim uArch: Shader 11 finished CTA #2 (41446,0), 5 CTAs running
GPGPU-Sim uArch: cycles simulated: 41500  inst.: 14271111 (ipc=343.9) sim_rate=259474 (inst/sec) elapsed = 0:0:00:55 / Sun Mar  6 05:31:55 2016
GPGPU-Sim PTX: 15000000 instructions simulated : ctaid=(71,0,0) tid=(214,0,0)
GPGPU-Sim uArch: Shader 14 finished CTA #2 (41682,0), 5 CTAs running
GPGPU-Sim uArch: Shader 8 finished CTA #2 (41857,0), 5 CTAs running
GPGPU-Sim PTX: 15100000 instructions simulated : ctaid=(58,0,0) tid=(54,0,0)
GPGPU-Sim uArch: cycles simulated: 42000  inst.: 14418537 (ipc=343.3) sim_rate=257473 (inst/sec) elapsed = 0:0:00:56 / Sun Mar  6 05:31:56 2016
GPGPU-Sim PTX: 15200000 instructions simulated : ctaid=(121,0,0) tid=(151,0,0)
GPGPU-Sim uArch: cycles simulated: 42500  inst.: 14547113 (ipc=342.3) sim_rate=255212 (inst/sec) elapsed = 0:0:00:57 / Sun Mar  6 05:31:57 2016
GPGPU-Sim PTX: 15300000 instructions simulated : ctaid=(38,0,0) tid=(194,0,0)
GPGPU-Sim PTX: 15400000 instructions simulated : ctaid=(53,0,0) tid=(116,0,0)
GPGPU-Sim uArch: Shader 9 finished CTA #2 (43090,0), 5 CTAs running
GPGPU-Sim PTX: 15500000 instructions simulated : ctaid=(115,0,0) tid=(18,0,0)
GPGPU-Sim uArch: cycles simulated: 43500  inst.: 14828349 (ipc=340.9) sim_rate=255661 (inst/sec) elapsed = 0:0:00:58 / Sun Mar  6 05:31:58 2016
GPGPU-Sim PTX: 15600000 instructions simulated : ctaid=(120,0,0) tid=(44,0,0)
GPGPU-Sim uArch: Shader 7 finished CTA #2 (43817,0), 5 CTAs running
GPGPU-Sim PTX: 15700000 instructions simulated : ctaid=(50,0,0) tid=(235,0,0)
GPGPU-Sim uArch: cycles simulated: 44000  inst.: 14993022 (ipc=340.8) sim_rate=254119 (inst/sec) elapsed = 0:0:00:59 / Sun Mar  6 05:31:59 2016
GPGPU-Sim PTX: 15800000 instructions simulated : ctaid=(96,0,0) tid=(203,0,0)
GPGPU-Sim PTX: 15900000 instructions simulated : ctaid=(95,0,0) tid=(45,0,0)
GPGPU-Sim uArch: cycles simulated: 44500  inst.: 15180378 (ipc=341.1) sim_rate=253006 (inst/sec) elapsed = 0:0:01:00 / Sun Mar  6 05:32:00 2016
GPGPU-Sim PTX: 16000000 instructions simulated : ctaid=(87,0,0) tid=(70,0,0)
GPGPU-Sim PTX: 16100000 instructions simulated : ctaid=(92,0,0) tid=(175,0,0)
GPGPU-Sim uArch: cycles simulated: 45000  inst.: 15403920 (ipc=342.3) sim_rate=252523 (inst/sec) elapsed = 0:0:01:01 / Sun Mar  6 05:32:01 2016
GPGPU-Sim PTX: 16200000 instructions simulated : ctaid=(86,0,0) tid=(90,0,0)
GPGPU-Sim uArch: Shader 11 finished CTA #3 (45286,0), 4 CTAs running
GPGPU-Sim PTX: 16300000 instructions simulated : ctaid=(61,0,0) tid=(65,0,0)
GPGPU-Sim uArch: cycles simulated: 45500  inst.: 15638449 (ipc=343.7) sim_rate=252233 (inst/sec) elapsed = 0:0:01:02 / Sun Mar  6 05:32:02 2016
GPGPU-Sim PTX: 16400000 instructions simulated : ctaid=(53,0,0) tid=(225,0,0)
GPGPU-Sim PTX: 16500000 instructions simulated : ctaid=(82,0,0) tid=(124,0,0)
GPGPU-Sim PTX: 16600000 instructions simulated : ctaid=(106,0,0) tid=(210,0,0)
GPGPU-Sim uArch: cycles simulated: 46000  inst.: 15898947 (ipc=345.6) sim_rate=252364 (inst/sec) elapsed = 0:0:01:03 / Sun Mar  6 05:32:03 2016
GPGPU-Sim PTX: 16700000 instructions simulated : ctaid=(64,0,0) tid=(95,0,0)
GPGPU-Sim uArch: Shader 14 finished CTA #3 (46136,0), 4 CTAs running
GPGPU-Sim PTX: 16800000 instructions simulated : ctaid=(54,0,0) tid=(161,0,0)
GPGPU-Sim PTX: 16900000 instructions simulated : ctaid=(48,0,0) tid=(12,0,0)
GPGPU-Sim uArch: cycles simulated: 46500  inst.: 16172792 (ipc=347.8) sim_rate=252699 (inst/sec) elapsed = 0:0:01:04 / Sun Mar  6 05:32:04 2016
GPGPU-Sim PTX: 17000000 instructions simulated : ctaid=(67,0,0) tid=(177,0,0)
GPGPU-Sim PTX: 17100000 instructions simulated : ctaid=(45,0,0) tid=(0,0,0)
GPGPU-Sim uArch: Shader 2 finished CTA #3 (46933,0), 5 CTAs running
GPGPU-Sim PTX: 17200000 instructions simulated : ctaid=(54,0,0) tid=(235,0,0)
GPGPU-Sim uArch: cycles simulated: 47000  inst.: 16413536 (ipc=349.2) sim_rate=252515 (inst/sec) elapsed = 0:0:01:05 / Sun Mar  6 05:32:05 2016
GPGPU-Sim PTX: 17300000 instructions simulated : ctaid=(96,0,0) tid=(112,0,0)
GPGPU-Sim uArch: Shader 13 finished CTA #3 (47257,0), 4 CTAs running
GPGPU-Sim PTX: 17400000 instructions simulated : ctaid=(75,0,0) tid=(190,0,0)
GPGPU-Sim uArch: cycles simulated: 47500  inst.: 16623062 (ipc=350.0) sim_rate=251864 (inst/sec) elapsed = 0:0:01:06 / Sun Mar  6 05:32:06 2016
GPGPU-Sim uArch: Shader 8 finished CTA #3 (47560,0), 4 CTAs running
GPGPU-Sim PTX: 17500000 instructions simulated : ctaid=(69,0,0) tid=(191,0,0)
GPGPU-Sim uArch: Shader 6 finished CTA #3 (47891,0), 5 CTAs running
GPGPU-Sim PTX: 17600000 instructions simulated : ctaid=(59,0,0) tid=(96,0,0)
GPGPU-Sim uArch: cycles simulated: 48000  inst.: 16791090 (ipc=349.8) sim_rate=250613 (inst/sec) elapsed = 0:0:01:07 / Sun Mar  6 05:32:07 2016
GPGPU-Sim PTX: 17700000 instructions simulated : ctaid=(45,0,0) tid=(16,0,0)
GPGPU-Sim uArch: Shader 3 finished CTA #3 (48434,0), 5 CTAs running
GPGPU-Sim uArch: cycles simulated: 48500  inst.: 16931313 (ipc=349.1) sim_rate=248989 (inst/sec) elapsed = 0:0:01:08 / Sun Mar  6 05:32:08 2016
GPGPU-Sim PTX: 17800000 instructions simulated : ctaid=(75,0,0) tid=(36,0,0)
GPGPU-Sim uArch: Shader 0 finished CTA #3 (48813,0), 5 CTAs running
GPGPU-Sim uArch: Shader 10 finished CTA #3 (48831,0), 5 CTAs running
GPGPU-Sim uArch: Shader 1 finished CTA #3 (48833,0), 4 CTAs running
GPGPU-Sim uArch: Shader 12 finished CTA #3 (48835,0), 5 CTAs running
GPGPU-Sim uArch: Shader 5 finished CTA #3 (48985,0), 5 CTAs running
GPGPU-Sim uArch: cycles simulated: 49000  inst.: 17039872 (ipc=347.8) sim_rate=246954 (inst/sec) elapsed = 0:0:01:09 / Sun Mar  6 05:32:09 2016
GPGPU-Sim uArch: Shader 9 finished CTA #3 (49056,0), 4 CTAs running
GPGPU-Sim uArch: Shader 4 finished CTA #3 (49090,0), 5 CTAs running
GPGPU-Sim PTX: 17900000 instructions simulated : ctaid=(90,0,0) tid=(165,0,0)
GPGPU-Sim PTX: 18000000 instructions simulated : ctaid=(65,0,0) tid=(32,0,0)
GPGPU-Sim PTX: 18100000 instructions simulated : ctaid=(89,0,0) tid=(63,0,0)
GPGPU-Sim PTX: 18200000 instructions simulated : ctaid=(125,0,0) tid=(19,0,0)
GPGPU-Sim uArch: cycles simulated: 50000  inst.: 17373282 (ipc=347.5) sim_rate=248189 (inst/sec) elapsed = 0:0:01:10 / Sun Mar  6 05:32:10 2016
GPGPU-Sim uArch: Shader 7 finished CTA #3 (50004,0), 4 CTAs running
GPGPU-Sim PTX: 18300000 instructions simulated : ctaid=(60,0,0) tid=(191,0,0)
GPGPU-Sim uArch: cycles simulated: 50500  inst.: 17527476 (ipc=347.1) sim_rate=246865 (inst/sec) elapsed = 0:0:01:11 / Sun Mar  6 05:32:11 2016
GPGPU-Sim PTX: 18400000 instructions simulated : ctaid=(70,0,0) tid=(100,0,0)
GPGPU-Sim PTX: 18500000 instructions simulated : ctaid=(117,0,0) tid=(49,0,0)
GPGPU-Sim uArch: Shader 11 finished CTA #4 (50996,0), 3 CTAs running
GPGPU-Sim uArch: cycles simulated: 51000  inst.: 17698529 (ipc=347.0) sim_rate=245812 (inst/sec) elapsed = 0:0:01:12 / Sun Mar  6 05:32:12 2016
GPGPU-Sim PTX: 18600000 instructions simulated : ctaid=(103,0,0) tid=(77,0,0)
GPGPU-Sim PTX: 18700000 instructions simulated : ctaid=(117,0,0) tid=(53,0,0)
GPGPU-Sim uArch: cycles simulated: 51500  inst.: 17891374 (ipc=347.4) sim_rate=245087 (inst/sec) elapsed = 0:0:01:13 / Sun Mar  6 05:32:13 2016
GPGPU-Sim PTX: 18800000 instructions simulated : ctaid=(73,0,0) tid=(38,0,0)
GPGPU-Sim PTX: 18900000 instructions simulated : ctaid=(103,0,0) tid=(183,0,0)
GPGPU-Sim PTX: 19000000 instructions simulated : ctaid=(77,0,0) tid=(115,0,0)
GPGPU-Sim uArch: cycles simulated: 52000  inst.: 18127581 (ipc=348.6) sim_rate=244967 (inst/sec) elapsed = 0:0:01:14 / Sun Mar  6 05:32:14 2016
GPGPU-Sim uArch: Shader 14 finished CTA #4 (52114,0), 3 CTAs running
GPGPU-Sim PTX: 19100000 instructions simulated : ctaid=(126,0,0) tid=(32,0,0)
GPGPU-Sim uArch: Shader 1 finished CTA #4 (52317,0), 3 CTAs running
GPGPU-Sim PTX: 19200000 instructions simulated : ctaid=(103,0,0) tid=(47,0,0)
GPGPU-Sim uArch: cycles simulated: 52500  inst.: 18351075 (ipc=349.5) sim_rate=244681 (inst/sec) elapsed = 0:0:01:15 / Sun Mar  6 05:32:15 2016
GPGPU-Sim uArch: Shader 13 finished CTA #4 (52533,0), 3 CTAs running
GPGPU-Sim uArch: Shader 2 finished CTA #4 (52536,0), 4 CTAs running
GPGPU-Sim PTX: 19300000 instructions simulated : ctaid=(98,0,0) tid=(46,0,0)
GPGPU-Sim PTX: 19400000 instructions simulated : ctaid=(66,0,0) tid=(5,0,0)
GPGPU-Sim uArch: cycles simulated: 53000  inst.: 18600035 (ipc=350.9) sim_rate=244737 (inst/sec) elapsed = 0:0:01:16 / Sun Mar  6 05:32:16 2016
GPGPU-Sim PTX: 19500000 instructions simulated : ctaid=(69,0,0) tid=(175,0,0)
GPGPU-Sim PTX: 19600000 instructions simulated : ctaid=(71,0,0) tid=(81,0,0)
GPGPU-Sim PTX: 19700000 instructions simulated : ctaid=(63,0,0) tid=(151,0,0)
GPGPU-Sim PTX: 19800000 instructions simulated : ctaid=(66,0,0) tid=(141,0,0)
GPGPU-Sim uArch: Shader 4 finished CTA #4 (53783,0), 4 CTAs running
GPGPU-Sim PTX: 19900000 instructions simulated : ctaid=(106,0,0) tid=(182,0,0)
GPGPU-Sim PTX: 20000000 instructions simulated : ctaid=(99,0,0) tid=(118,0,0)
GPGPU-Sim uArch: cycles simulated: 54000  inst.: 19080700 (ipc=353.3) sim_rate=247801 (inst/sec) elapsed = 0:0:01:17 / Sun Mar  6 05:32:17 2016
GPGPU-Sim uArch: Shader 8 finished CTA #4 (54068,0), 3 CTAs running
GPGPU-Sim uArch: Shader 5 finished CTA #4 (54076,0), 4 CTAs running
GPGPU-Sim PTX: 20100000 instructions simulated : ctaid=(94,0,0) tid=(105,0,0)
GPGPU-Sim uArch: Shader 3 finished CTA #4 (54247,0), 4 CTAs running
GPGPU-Sim uArch: Shader 7 finished CTA #4 (54254,0), 3 CTAs running
GPGPU-Sim PTX: 20200000 instructions simulated : ctaid=(95,0,0) tid=(93,0,0)
GPGPU-Sim uArch: cycles simulated: 54500  inst.: 19298239 (ipc=354.1) sim_rate=247413 (inst/sec) elapsed = 0:0:01:18 / Sun Mar  6 05:32:18 2016
GPGPU-Sim uArch: Shader 6 finished CTA #4 (54617,0), 4 CTAs running
GPGPU-Sim PTX: 20300000 instructions simulated : ctaid=(85,0,0) tid=(229,0,0)
GPGPU-Sim PTX: 20400000 instructions simulated : ctaid=(68,0,0) tid=(87,0,0)
GPGPU-Sim uArch: Shader 12 finished CTA #4 (54932,0), 4 CTAs running
GPGPU-Sim uArch: cycles simulated: 55000  inst.: 19516479 (ipc=354.8) sim_rate=247044 (inst/sec) elapsed = 0:0:01:19 / Sun Mar  6 05:32:19 2016
GPGPU-Sim PTX: 20500000 instructions simulated : ctaid=(79,0,0) tid=(210,0,0)
GPGPU-Sim uArch: Shader 9 finished CTA #4 (55099,0), 3 CTAs running
GPGPU-Sim uArch: Shader 10 finished CTA #4 (55234,0), 4 CTAs running
GPGPU-Sim PTX: 20600000 instructions simulated : ctaid=(98,0,0) tid=(253,0,0)
GPGPU-Sim uArch: Shader 11 finished CTA #5 (55465,0), 2 CTAs running
GPGPU-Sim uArch: cycles simulated: 55500  inst.: 19741211 (ipc=355.7) sim_rate=246765 (inst/sec) elapsed = 0:0:01:20 / Sun Mar  6 05:32:20 2016
GPGPU-Sim PTX: 20700000 instructions simulated : ctaid=(105,0,0) tid=(33,0,0)
GPGPU-Sim PTX: 20800000 instructions simulated : ctaid=(113,0,0) tid=(26,0,0)
GPGPU-Sim uArch: Shader 0 finished CTA #4 (55826,0), 4 CTAs running
GPGPU-Sim PTX: 20900000 instructions simulated : ctaid=(98,0,0) tid=(50,0,0)
GPGPU-Sim uArch: cycles simulated: 56000  inst.: 19973314 (ipc=356.7) sim_rate=246584 (inst/sec) elapsed = 0:0:01:21 / Sun Mar  6 05:32:21 2016
GPGPU-Sim PTX: 21000000 instructions simulated : ctaid=(92,0,0) tid=(233,0,0)
GPGPU-Sim PTX: 21100000 instructions simulated : ctaid=(101,0,0) tid=(158,0,0)
GPGPU-Sim uArch: Shader 14 finished CTA #5 (56395,0), 2 CTAs running
GPGPU-Sim uArch: cycles simulated: 56500  inst.: 20209167 (ipc=357.7) sim_rate=246453 (inst/sec) elapsed = 0:0:01:22 / Sun Mar  6 05:32:22 2016
GPGPU-Sim PTX: 21200000 instructions simulated : ctaid=(108,0,0) tid=(237,0,0)
GPGPU-Sim uArch: Shader 3 finished CTA #5 (56659,0), 3 CTAs running
GPGPU-Sim PTX: 21300000 instructions simulated : ctaid=(112,0,0) tid=(211,0,0)
GPGPU-Sim uArch: Shader 13 finished CTA #5 (56757,0), 2 CTAs running
GPGPU-Sim PTX: 21400000 instructions simulated : ctaid=(116,0,0) tid=(162,0,0)
GPGPU-Sim uArch: cycles simulated: 57000  inst.: 20462556 (ipc=359.0) sim_rate=246536 (inst/sec) elapsed = 0:0:01:23 / Sun Mar  6 05:32:23 2016
GPGPU-Sim PTX: 21500000 instructions simulated : ctaid=(112,0,0) tid=(106,0,0)
GPGPU-Sim PTX: 21600000 instructions simulated : ctaid=(80,0,0) tid=(123,0,0)
GPGPU-Sim PTX: 21700000 instructions simulated : ctaid=(113,0,0) tid=(209,0,0)
GPGPU-Sim uArch: cycles simulated: 57500  inst.: 20736197 (ipc=360.6) sim_rate=246859 (inst/sec) elapsed = 0:0:01:24 / Sun Mar  6 05:32:24 2016
GPGPU-Sim PTX: 21800000 instructions simulated : ctaid=(107,0,0) tid=(173,0,0)
GPGPU-Sim uArch: Shader 8 finished CTA #5 (57756,0), 2 CTAs running
GPGPU-Sim PTX: 21900000 instructions simulated : ctaid=(94,0,0) tid=(105,0,0)
GPGPU-Sim uArch: cycles simulated: 58000  inst.: 20969708 (ipc=361.5) sim_rate=246702 (inst/sec) elapsed = 0:0:01:25 / Sun Mar  6 05:32:25 2016
GPGPU-Sim PTX: 22000000 instructions simulated : ctaid=(83,0,0) tid=(63,0,0)
GPGPU-Sim uArch: Shader 1 finished CTA #5 (58161,0), 2 CTAs running
GPGPU-Sim uArch: Shader 7 finished CTA #5 (58234,0), 2 CTAs running
GPGPU-Sim PTX: 22100000 instructions simulated : ctaid=(84,0,0) tid=(26,0,0)
GPGPU-Sim uArch: Shader 2 finished CTA #5 (58437,0), 3 CTAs running
GPGPU-Sim PTX: 22200000 instructions simulated : ctaid=(80,0,0) tid=(113,0,0)
GPGPU-Sim uArch: cycles simulated: 58500  inst.: 21185030 (ipc=362.1) sim_rate=246337 (inst/sec) elapsed = 0:0:01:26 / Sun Mar  6 05:32:26 2016
GPGPU-Sim PTX: 22300000 instructions simulated : ctaid=(112,0,0) tid=(18,0,0)
GPGPU-Sim uArch: Shader 5 finished CTA #5 (58768,0), 3 CTAs running
GPGPU-Sim PTX: 22400000 instructions simulated : ctaid=(119,0,0) tid=(201,0,0)
GPGPU-Sim uArch: Shader 4 finished CTA #5 (58949,0), 3 CTAs running
GPGPU-Sim uArch: Shader 0 finished CTA #5 (59022,0), 3 CTAs running
GPGPU-Sim uArch: Shader 10 finished CTA #5 (59044,0), 3 CTAs running
GPGPU-Sim PTX: 22500000 instructions simulated : ctaid=(127,0,0) tid=(227,0,0)
GPGPU-Sim uArch: Shader 9 finished CTA #5 (59209,0), 2 CTAs running
GPGPU-Sim PTX: 22600000 instructions simulated : ctaid=(121,0,0) tid=(15,0,0)
GPGPU-Sim uArch: cycles simulated: 59500  inst.: 21581380 (ipc=362.7) sim_rate=248061 (inst/sec) elapsed = 0:0:01:27 / Sun Mar  6 05:32:27 2016
GPGPU-Sim PTX: 22700000 instructions simulated : ctaid=(112,0,0) tid=(150,0,0)
GPGPU-Sim uArch: Shader 6 finished CTA #5 (59871,0), 3 CTAs running
GPGPU-Sim PTX: 22800000 instructions simulated : ctaid=(90,0,0) tid=(93,0,0)
GPGPU-Sim uArch: cycles simulated: 60000  inst.: 21755241 (ipc=362.6) sim_rate=247218 (inst/sec) elapsed = 0:0:01:28 / Sun Mar  6 05:32:28 2016
GPGPU-Sim uArch: Shader 12 finished CTA #5 (60196,0), 3 CTAs running
GPGPU-Sim PTX: 22900000 instructions simulated : ctaid=(121,0,0) tid=(33,0,0)
GPGPU-Sim PTX: 23000000 instructions simulated : ctaid=(113,0,0) tid=(151,0,0)
GPGPU-Sim uArch: cycles simulated: 60500  inst.: 21982076 (ipc=363.3) sim_rate=246989 (inst/sec) elapsed = 0:0:01:29 / Sun Mar  6 05:32:29 2016
GPGPU-Sim uArch: Shader 13 finished CTA #0 (60578,0), 1 CTAs running
GPGPU-Sim PTX: 23100000 instructions simulated : ctaid=(123,0,0) tid=(55,0,0)
GPGPU-Sim PTX: 23200000 instructions simulated : ctaid=(99,0,0) tid=(83,0,0)
GPGPU-Sim uArch: cycles simulated: 61000  inst.: 22209556 (ipc=364.1) sim_rate=246772 (inst/sec) elapsed = 0:0:01:30 / Sun Mar  6 05:32:30 2016
GPGPU-Sim PTX: 23300000 instructions simulated : ctaid=(101,0,0) tid=(227,0,0)
GPGPU-Sim PTX: 23400000 instructions simulated : ctaid=(126,0,0) tid=(142,0,0)
GPGPU-Sim PTX: 23500000 instructions simulated : ctaid=(106,0,0) tid=(255,0,0)
GPGPU-Sim uArch: Shader 2 finished CTA #0 (61667,0), 2 CTAs running
GPGPU-Sim PTX: 23600000 instructions simulated : ctaid=(123,0,0) tid=(63,0,0)
GPGPU-Sim uArch: Shader 14 finished CTA #0 (61816,0), 1 CTAs running
GPGPU-Sim uArch: Shader 11 finished CTA #0 (61847,0), 1 CTAs running
GPGPU-Sim uArch: Shader 8 finished CTA #0 (61899,0), 1 CTAs running
GPGPU-Sim PTX: 23700000 instructions simulated : ctaid=(121,0,0) tid=(175,0,0)
GPGPU-Sim uArch: cycles simulated: 62000  inst.: 22629154 (ipc=365.0) sim_rate=248672 (inst/sec) elapsed = 0:0:01:31 / Sun Mar  6 05:32:31 2016
GPGPU-Sim PTX: 23800000 instructions simulated : ctaid=(125,0,0) tid=(57,0,0)
GPGPU-Sim uArch: Shader 1 finished CTA #0 (62196,0), 1 CTAs running
GPGPU-Sim PTX: 23900000 instructions simulated : ctaid=(101,0,0) tid=(94,0,0)
GPGPU-Sim uArch: cycles simulated: 62500  inst.: 22815341 (ipc=365.0) sim_rate=247992 (inst/sec) elapsed = 0:0:01:32 / Sun Mar  6 05:32:32 2016
GPGPU-Sim uArch: Shader 7 finished CTA #0 (62626,0), 1 CTAs running
GPGPU-Sim PTX: 24000000 instructions simulated : ctaid=(95,0,0) tid=(131,0,0)
GPGPU-Sim PTX: 24100000 instructions simulated : ctaid=(96,0,0) tid=(195,0,0)
GPGPU-Sim uArch: cycles simulated: 63000  inst.: 22996957 (ipc=365.0) sim_rate=247279 (inst/sec) elapsed = 0:0:01:33 / Sun Mar  6 05:32:33 2016
GPGPU-Sim uArch: Shader 10 finished CTA #0 (63045,0), 2 CTAs running
GPGPU-Sim uArch: Shader 3 finished CTA #0 (63162,0), 2 CTAs running
GPGPU-Sim PTX: 24200000 instructions simulated : ctaid=(91,0,0) tid=(4,0,0)
GPGPU-Sim uArch: Shader 4 finished CTA #0 (63449,0), 2 CTAs running
GPGPU-Sim PTX: 24300000 instructions simulated : ctaid=(119,0,0) tid=(129,0,0)
GPGPU-Sim PTX: 24400000 instructions simulated : ctaid=(111,0,0) tid=(159,0,0)
GPGPU-Sim uArch: Shader 13 finished CTA #1 (63863,0), 0 CTAs running
GPGPU-Sim uArch: Shader 13 empty (release kernel 1 '_Z13scalarProdGPUPfS_S_ii').
GPGPU-Sim PTX: 24500000 instructions simulated : ctaid=(105,0,0) tid=(3,0,0)
GPGPU-Sim uArch: cycles simulated: 64000  inst.: 23386156 (ipc=365.4) sim_rate=248788 (inst/sec) elapsed = 0:0:01:34 / Sun Mar  6 05:32:34 2016
GPGPU-Sim uArch: Shader 5 finished CTA #0 (64138,0), 2 CTAs running
GPGPU-Sim uArch: Shader 12 finished CTA #0 (64170,0), 2 CTAs running
GPGPU-Sim PTX: 24600000 instructions simulated : ctaid=(115,0,0) tid=(225,0,0)
GPGPU-Sim uArch: Shader 6 finished CTA #0 (64338,0), 2 CTAs running
GPGPU-Sim uArch: Shader 8 finished CTA #1 (64467,0), 0 CTAs running
GPGPU-Sim uArch: Shader 8 empty (release kernel 1 '_Z13scalarProdGPUPfS_S_ii').
GPGPU-Sim uArch: cycles simulated: 64500  inst.: 23550049 (ipc=365.1) sim_rate=247895 (inst/sec) elapsed = 0:0:01:35 / Sun Mar  6 05:32:35 2016
GPGPU-Sim PTX: 24700000 instructions simulated : ctaid=(108,0,0) tid=(241,0,0)
GPGPU-Sim uArch: Shader 7 finished CTA #1 (64589,0), 0 CTAs running
GPGPU-Sim uArch: Shader 7 empty (release kernel 1 '_Z13scalarProdGPUPfS_S_ii').
GPGPU-Sim uArch: Shader 11 finished CTA #1 (64603,0), 0 CTAs running
GPGPU-Sim uArch: Shader 11 empty (release kernel 1 '_Z13scalarProdGPUPfS_S_ii').
GPGPU-Sim PTX: 24800000 instructions simulated : ctaid=(125,0,0) tid=(131,0,0)
GPGPU-Sim uArch: Shader 14 finished CTA #1 (65123,0), 0 CTAs running
GPGPU-Sim uArch: Shader 14 empty (release kernel 1 '_Z13scalarProdGPUPfS_S_ii').
GPGPU-Sim uArch: Shader 1 finished CTA #1 (65148,0), 0 CTAs running
GPGPU-Sim uArch: Shader 1 empty (release kernel 1 '_Z13scalarProdGPUPfS_S_ii').
GPGPU-Sim PTX: 24900000 instructions simulated : ctaid=(127,0,0) tid=(47,0,0)
GPGPU-Sim uArch: Shader 0 finished CTA #0 (65358,0), 2 CTAs running
GPGPU-Sim uArch: Shader 9 finished CTA #0 (65371,0), 1 CTAs running
GPGPU-Sim uArch: cycles simulated: 65500  inst.: 23793973 (ipc=363.3) sim_rate=247853 (inst/sec) elapsed = 0:0:01:36 / Sun Mar  6 05:32:36 2016
GPGPU-Sim uArch: Shader 2 finished CTA #1 (65523,0), 1 CTAs running
GPGPU-Sim PTX: 25000000 instructions simulated : ctaid=(119,0,0) tid=(173,0,0)
GPGPU-Sim uArch: Shader 4 finished CTA #1 (65738,0), 1 CTAs running
GPGPU-Sim PTX: 25100000 instructions simulated : ctaid=(107,0,0) tid=(49,0,0)
GPGPU-Sim PTX: 25200000 instructions simulated : ctaid=(126,0,0) tid=(85,0,0)
GPGPU-Sim uArch: Shader 3 finished CTA #1 (66581,0), 1 CTAs running
GPGPU-Sim uArch: Shader 5 finished CTA #1 (66734,0), 1 CTAs running
GPGPU-Sim uArch: Shader 12 finished CTA #1 (66752,0), 1 CTAs running
GPGPU-Sim uArch: Shader 0 finished CTA #1 (66983,0), 1 CTAs running
GPGPU-Sim uArch: cycles simulated: 67000  inst.: 24117460 (ipc=360.0) sim_rate=248633 (inst/sec) elapsed = 0:0:01:37 / Sun Mar  6 05:32:37 2016
GPGPU-Sim uArch: Shader 10 finished CTA #1 (67127,0), 1 CTAs running
GPGPU-Sim uArch: Shader 6 finished CTA #1 (67160,0), 1 CTAs running
GPGPU-Sim PTX: 25300000 instructions simulated : ctaid=(120,0,0) tid=(47,0,0)
GPGPU-Sim uArch: Shader 9 finished CTA #1 (67246,0), 0 CTAs running
GPGPU-Sim uArch: Shader 9 empty (release kernel 1 '_Z13scalarProdGPUPfS_S_ii').
GPGPU-Sim uArch: Shader 2 finished CTA #2 (67900,0), 0 CTAs running
GPGPU-Sim uArch: Shader 2 empty (release kernel 1 '_Z13scalarProdGPUPfS_S_ii').
GPGPU-Sim PTX: 25400000 instructions simulated : ctaid=(126,0,0) tid=(157,0,0)
GPGPU-Sim PTX: 25500000 instructions simulated : ctaid=(123,0,0) tid=(83,0,0)
GPGPU-Sim uArch: Shader 4 finished CTA #2 (68860,0), 0 CTAs running
GPGPU-Sim uArch: Shader 4 empty (release kernel 1 '_Z13scalarProdGPUPfS_S_ii').
GPGPU-Sim uArch: Shader 6 finished CTA #2 (69270,0), 0 CTAs running
GPGPU-Sim uArch: Shader 6 empty (release kernel 1 '_Z13scalarProdGPUPfS_S_ii').
GPGPU-Sim uArch: Shader 3 finished CTA #2 (69364,0), 0 CTAs running
GPGPU-Sim uArch: Shader 3 empty (release kernel 1 '_Z13scalarProdGPUPfS_S_ii').
GPGPU-Sim uArch: Shader 5 finished CTA #2 (69376,0), 0 CTAs running
GPGPU-Sim uArch: Shader 5 empty (release kernel 1 '_Z13scalarProdGPUPfS_S_ii').
GPGPU-Sim uArch: cycles simulated: 69500  inst.: 24412031 (ipc=351.3) sim_rate=249102 (inst/sec) elapsed = 0:0:01:38 / Sun Mar  6 05:32:38 2016
GPGPU-Sim PTX: 25600000 instructions simulated : ctaid=(127,0,0) tid=(53,0,0)
GPGPU-Sim uArch: Shader 12 finished CTA #2 (69914,0), 0 CTAs running
GPGPU-Sim uArch: Shader 12 empty (release kernel 1 '_Z13scalarProdGPUPfS_S_ii').
GPGPU-Sim uArch: Shader 0 finished CTA #2 (70349,0), 0 CTAs running
GPGPU-Sim uArch: Shader 0 empty (release kernel 1 '_Z13scalarProdGPUPfS_S_ii').
GPGPU-Sim uArch: Shader 10 finished CTA #2 (70518,0), 0 CTAs running
GPGPU-Sim uArch: Shader 10 empty (release kernel 1 '_Z13scalarProdGPUPfS_S_ii').
GPGPU-Sim uArch: GPU detected kernel '_Z13scalarProdGPUPfS_S_ii' finished on shader 10.
GPGPU-Sim: synchronize waiting for inactive GPU simulation
kernel_name = _Z13scalarProdGPUPfS_S_ii 
kernel_launch_uid = 1 
gpu_sim_cycle = 70519
gpu_sim_insn = 24441600
gpu_ipc =     346.5959
gpu_tot_sim_cycle = 70519
gpu_tot_sim_insn = 24441600
gpu_tot_ipc =     346.5959
gpu_tot_issued_cta = 128
gpu_stall_dramfull = 26632
gpu_stall_icnt2sh    = 365830
gpu_total_sim_rate=249404

========= Core cache stats =========
L1I_cache:
	L1I_total_cache_accesses = 463616
	L1I_total_cache_misses = 1923
	L1I_total_cache_miss_rate = 0.0041
	L1I_total_cache_pending_hits = 0
	L1I_total_cache_reservation_fails = 6316
L1D_cache:
	L1D_cache_core[0]: Access = 4626, Miss = 4626, Miss_rate = 1.000, Pending_hits = 0, Reservation_fails = 43179
	L1D_cache_core[1]: Access = 4112, Miss = 4112, Miss_rate = 1.000, Pending_hits = 0, Reservation_fails = 38664
	L1D_cache_core[2]: Access = 4626, Miss = 4626, Miss_rate = 1.000, Pending_hits = 0, Reservation_fails = 41479
	L1D_cache_core[3]: Access = 4626, Miss = 4626, Miss_rate = 1.000, Pending_hits = 0, Reservation_fails = 40022
	L1D_cache_core[4]: Access = 4626, Miss = 4626, Miss_rate = 1.000, Pending_hits = 0, Reservation_fails = 43049
	L1D_cache_core[5]: Access = 4626, Miss = 4626, Miss_rate = 1.000, Pending_hits = 0, Reservation_fails = 42548
	L1D_cache_core[6]: Access = 4626, Miss = 4626, Miss_rate = 1.000, Pending_hits = 0, Reservation_fails = 44272
	L1D_cache_core[7]: Access = 4112, Miss = 4112, Miss_rate = 1.000, Pending_hits = 0, Reservation_fails = 38997
	L1D_cache_core[8]: Access = 4112, Miss = 4112, Miss_rate = 1.000, Pending_hits = 0, Reservation_fails = 39960
	L1D_cache_core[9]: Access = 4112, Miss = 4112, Miss_rate = 1.000, Pending_hits = 0, Reservation_fails = 42250
	L1D_cache_core[10]: Access = 4626, Miss = 4626, Miss_rate = 1.000, Pending_hits = 0, Reservation_fails = 43332
	L1D_cache_core[11]: Access = 4112, Miss = 4112, Miss_rate = 1.000, Pending_hits = 0, Reservation_fails = 36929
	L1D_cache_core[12]: Access = 4626, Miss = 4626, Miss_rate = 1.000, Pending_hits = 0, Reservation_fails = 43755
	L1D_cache_core[13]: Access = 4112, Miss = 4112, Miss_rate = 1.000, Pending_hits = 0, Reservation_fails = 38316
	L1D_cache_core[14]: Access = 4112, Miss = 4112, Miss_rate = 1.000, Pending_hits = 0, Reservation_fails = 38658
	L1D_total_cache_accesses = 65792
	L1D_total_cache_misses = 65792
	L1D_total_cache_miss_rate = 1.0000
	L1D_total_cache_pending_hits = 0
	L1D_total_cache_reservation_fails = 615410
	L1D_cache_data_port_util = 0.000
	L1D_cache_fill_port_util = 0.065
L1C_cache:
	L1C_total_cache_accesses = 19712
	L1C_total_cache_misses = 480
	L1C_total_cache_miss_rate = 0.0244
	L1C_total_cache_pending_hits = 0
	L1C_total_cache_reservation_fails = 3264
L1T_cache:
	L1T_total_cache_accesses = 0
	L1T_total_cache_misses = 0
	L1T_total_cache_pending_hits = 0
	L1T_total_cache_reservation_fails = 0

Total_core_cache_stats:
	Total_core_cache_stats_breakdown[GLOBAL_ACC_R][MISS] = 65536
	Total_core_cache_stats_breakdown[GLOBAL_ACC_R][RESERVATION_FAIL] = 613329
	Total_core_cache_stats_breakdown[CONST_ACC_R][HIT] = 19232
	Total_core_cache_stats_breakdown[CONST_ACC_R][MISS] = 480
	Total_core_cache_stats_breakdown[CONST_ACC_R][RESERVATION_FAIL] = 3264
	Total_core_cache_stats_breakdown[GLOBAL_ACC_W][MISS] = 256
	Total_core_cache_stats_breakdown[GLOBAL_ACC_W][RESERVATION_FAIL] = 2081
	Total_core_cache_stats_breakdown[INST_ACC_R][HIT] = 461693
	Total_core_cache_stats_breakdown[INST_ACC_R][MISS] = 1923
	Total_core_cache_stats_breakdown[INST_ACC_R][RESERVATION_FAIL] = 6316
Shader 0 warp_id issue ditsribution:
warp_id:
0, 1, 2, 3, 4, 5, 6, 7, 8, 9, 10, 11, 12, 13, 14, 15, 16, 17, 18, 19, 20, 21, 22, 23, 24, 25, 26, 27, 28, 29, 30, 31, 32, 33, 34, 35, 36, 37, 38, 39, 40, 41, 42, 43, 44, 45, 46, 47, 
distro:
2148, 1644, 1564, 1564, 1484, 1484, 1484, 1484, 2148, 1644, 1564, 1564, 1484, 1484, 1484, 1484, 2148, 1644, 1564, 1564, 1484, 1484, 1484, 1484, 1074, 822, 782, 782, 742, 742, 742, 742, 1074, 822, 782, 782, 742, 742, 742, 742, 1074, 822, 782, 782, 742, 742, 742, 742, 
gpgpu_n_tot_thrd_icount = 26329088
gpgpu_n_tot_w_icount = 822784
gpgpu_n_stall_shd_mem = 618674
gpgpu_n_mem_read_local = 0
gpgpu_n_mem_write_local = 0
gpgpu_n_mem_read_global = 65536
gpgpu_n_mem_write_global = 256
gpgpu_n_mem_texture = 0
gpgpu_n_mem_const = 15
gpgpu_n_load_insn  = 2097152
gpgpu_n_store_insn = 256
gpgpu_n_shmem_insn = 1048064
gpgpu_n_tex_insn = 0
gpgpu_n_const_mem_insn = 0
gpgpu_n_param_mem_insn = 622848
gpgpu_n_shmem_bkconflict = 0
gpgpu_n_cache_bkconflict = 0
gpgpu_n_intrawarp_mshr_merge = 0
gpgpu_n_cmem_portconflict = 3264
gpgpu_stall_shd_mem[c_mem][bk_conf] = 3264
gpgpu_stall_shd_mem[c_mem][mshr_rc] = 0
gpgpu_stall_shd_mem[c_mem][icnt_rc] = 0
gpgpu_stall_shd_mem[c_mem][data_port_stall] = 0
gpgpu_stall_shd_mem[t_mem][mshr_rc] = 0
gpgpu_stall_shd_mem[t_mem][icnt_rc] = 0
gpgpu_stall_shd_mem[t_mem][data_port_stall] = 0
gpgpu_stall_shd_mem[s_mem][bk_conf] = 0
gpgpu_stall_shd_mem[gl_mem][bk_conf] = 0
gpgpu_stall_shd_mem[gl_mem][coal_stall] = 615410
gpgpu_stall_shd_mem[gl_mem][data_port_stall] = 0
gpgpu_stall_shd_mem[g_mem_ld][mshr_rc] = 0
gpgpu_stall_shd_mem[g_mem_ld][icnt_rc] = 0
gpgpu_stall_shd_mem[g_mem_ld][wb_icnt_rc] = 0
gpgpu_stall_shd_mem[g_mem_ld][wb_rsrv_fail] = 0
gpgpu_stall_shd_mem[g_mem_st][mshr_rc] = 0
gpgpu_stall_shd_mem[g_mem_st][icnt_rc] = 0
gpgpu_stall_shd_mem[g_mem_st][wb_icnt_rc] = 0
gpgpu_stall_shd_mem[g_mem_st][wb_rsrv_fail] = 0
gpgpu_stall_shd_mem[l_mem_ld][mshr_rc] = 0
gpgpu_stall_shd_mem[l_mem_ld][icnt_rc] = 0
gpgpu_stall_shd_mem[l_mem_ld][wb_icnt_rc] = 0
gpgpu_stall_shd_mem[l_mem_ld][wb_rsrv_fail] = 0
gpgpu_stall_shd_mem[l_mem_st][mshr_rc] = 0
gpgpu_stall_shd_mem[l_mem_st][icnt_rc] = 0
gpgpu_stall_shd_mem[l_mem_ld][wb_icnt_rc] = 0
gpgpu_stall_shd_mem[l_mem_ld][wb_rsrv_fail] = 0
gpu_reg_bank_conflict_stalls = 0
Warp Occupancy Distribution:
Stall:905847	W0_Idle:26921	W0_Scoreboard:265658	W1:6656	W2:5120	W3:0	W4:5120	W5:0	W6:0	W7:0	W8:5120	W9:0	W10:0	W11:0	W12:0	W13:0	W14:0	W15:0	W16:5120	W17:0	W18:0	W19:0	W20:0	W21:0	W22:0	W23:0	W24:0	W25:0	W26:0	W27:0	W28:0	W29:0	W30:0	W31:0	W32:795648
traffic_breakdown_coretomem[CONST_ACC_R] = 120 {8:15,}
traffic_breakdown_coretomem[GLOBAL_ACC_R] = 524288 {8:65536,}
traffic_breakdown_coretomem[GLOBAL_ACC_W] = 10240 {40:256,}
traffic_breakdown_coretomem[INST_ACC_R] = 840 {8:105,}
traffic_breakdown_memtocore[CONST_ACC_R] = 1080 {72:15,}
traffic_breakdown_memtocore[GLOBAL_ACC_R] = 8912896 {136:65536,}
traffic_breakdown_memtocore[GLOBAL_ACC_W] = 2048 {8:256,}
traffic_breakdown_memtocore[INST_ACC_R] = 14280 {136:105,}
maxmrqlatency = 417 
maxdqlatency = 0 
maxmflatency = 803 
averagemflatency = 346 
max_icnt2mem_latency = 239 
max_icnt2sh_latency = 70518 
mrq_lat_table:44715 	1443 	1949 	4040 	7210 	4476 	1628 	103 	4 	0 	0 	0 	0 	0 	0 	0 	0 	0 	0 	0 	0 	0 	0 	0 	0 	0 	0 	0 	0 	0 	0 	0 	
dq_lat_table:0 	0 	0 	0 	0 	0 	0 	0 	0 	0 	0 	0 	0 	0 	0 	0 	0 	0 	0 	0 	0 	0 	0 	0 	0 	0 	0 	0 	0 	0 	0 	0 	
mf_lat_table:0 	0 	0 	0 	0 	0 	0 	241 	64772 	794 	0 	0 	0 	0 	0 	0 	0 	0 	0 	0 	0 	0 	0 	0 	0 	0 	0 	0 	0 	0 	0 	0 	
icnt2mem_lat_table:0 	0 	0 	57491 	6570 	811 	867 	173 	0 	0 	0 	0 	0 	0 	0 	0 	0 	0 	0 	0 	0 	0 	0 	0 	
icnt2sh_lat_table:0 	0 	0 	8325 	32214 	22571 	2435 	6 	0 	0 	0 	0 	0 	0 	58 	182 	16 	0 	0 	0 	0 	0 	0 	0 	
mf_lat_pw_table:0 	0 	0 	0 	0 	0 	0 	3 	136 	0 	0 	0 	0 	0 	0 	0 	0 	0 	0 	0 	0 	0 	0 	0 	0 	0 	0 	0 	0 	0 	0 	0 	
maximum concurrent accesses to same row:
dram[0]:         6         4         5         6         4         6         4         6         5         4         6         6        10         8        10         9 
dram[1]:         6         4         6         6         5         4         4         6         6         6         6         6        10         8         8         9 
dram[2]:         6         5         5         5         5         5         4         5         5         5         6         6        10        11         8        10 
dram[3]:         5         5         6         6         6         5         6         5         6         6         6         8        10        12         8         8 
dram[4]:         5         4         5         4         6         5         6         4         4         6         6         7        10        10        12         8 
dram[5]:         4         5         6         5         5         4         6         6         6         6         6         6         8        10         9         8 
maximum service time to same row:
dram[0]:      1046      1931      1913      1916      1929      1921      1938      1913      1906      1947      1910      1966      2103      1937      2240      1929 
dram[1]:      1431      1935      1917      1921      1933      1925      1943      1916      1913      1951      1915      1971      2019      1941      2038      1932 
dram[2]:      1939      1907      1921      1938      1943      1929      1947      1909      1915      1922      1919      1925      2073      2756      2041      2222 
dram[3]:      1944      1910      1925      1943      1947      1931      1951      1915      1919      1926      1922      1929      2025      2950      2046      1949 
dram[4]:      1922      1915      1907      1949      1913      1938      1904      1919      1937      1931      1957      1932      2891      1969      2239      1953 
dram[5]:      1926      1919      1910      1953      1916      1941      1909      1922      1941      1935      1960      1938      1932      1972      1925      1957 
average row accesses per activate:
dram[0]:  1.374745  1.307393  1.299807  1.272727  1.301527  1.296578  1.282331  1.328302  1.287020  1.315888  1.338552  1.354902  1.357576  1.357576  1.368635  1.346693 
dram[1]:  1.367140  1.284895  1.312500  1.317647  1.353175  1.319149  1.375000  1.306122  1.399602  1.318352  1.317919  1.349705  1.388430  1.374233  1.379877  1.363083 
dram[2]:  1.332016  1.325444  1.346693  1.294798  1.301527  1.293006  1.325800  1.303704  1.282331  1.303704  1.368000  1.420833  1.400000  1.325444  1.368635  1.379877 
dram[3]:  1.330040  1.363083  1.287356  1.317647  1.372233  1.320463  1.346080  1.396825  1.375000  1.377691  1.341177  1.353175  1.379877  1.368635  1.374233  1.354839 
dram[4]:  1.317647  1.325444  1.304854  1.322835  1.304015  1.333333  1.294118  1.310987  1.294118  1.333333  1.401222  1.375000  1.365854  1.371429  1.377049  1.354839 
dram[5]:  1.352113  1.280000  1.330693  1.317647  1.353175  1.330739  1.346080  1.335863  1.427992  1.353846  1.374750  1.353175  1.354839  1.405858  1.382716  1.382716 
average row locality = 65568/48901 = 1.340832
number of total memory accesses made:
dram[0]:         0         0         0         0         0         0         0         0         0         0         0         0         0         0         0         0 
dram[1]:         0         0         0         0         0         0         0         0         0         0         0         0         0         0         0         0 
dram[2]:         0         0         0         0         0         0         0         0         0         0         0         0         0         0         0         0 
dram[3]:         0         0         0         0         0         0         0         0         0         0         0         0         0         0         0         0 
dram[4]:         0         0         0         0         0         0         0         0         0         0         0         0         0         0         0         0 
dram[5]:         0         0         0         0         0         0         0         0         0         0         0         0         0         0         0         0 
total accesses: 0
min_bank_accesses = 0!
min_chip_accesses = 0!
number of total read accesses:
dram[0]:       675       672       672       672       682       682       704       704       704       704       684       685       672       672       672       672 
dram[1]:       674       672       672       672       682       682       704       704       704       704       684       684       672       672       672       672 
dram[2]:       674       672       672       672       682       684       704       704       704       704       684       682       672       672       672       672 
dram[3]:       673       672       672       672       682       684       704       704       704       704       684       682       672       672       672       672 
dram[4]:       672       672       672       672       682       684       704       704       704       704       684       682       672       672       672       672 
dram[5]:       672       672       672       672       682       684       704       704       704       704       684       682       672       672       672       672 
total reads: 65553
bank skew: 704/672 = 1.05
chip skew: 10928/10924 = 1.00
number of total write accesses:
dram[0]:         0         0         0         0         0         0         0         0         0         0         0         6         0         0         0         0 
dram[1]:         0         0         0         0         0         0         0         0         0         0         0         3         0         0         0         0 
dram[2]:         0         0         0         0         0         0         0         0         0         0         0         0         0         0         0         0 
dram[3]:         0         0         0         0         0         0         0         0         0         0         0         0         0         0         0         0 
dram[4]:         0         0         0         0         0         0         0         0         0         0         4         0         0         0         0         0 
dram[5]:         0         0         0         0         0         0         0         0         0         0         2         0         0         0         0         0 
total reads: 15
min_bank_accesses = 0!
min_chip_accesses = 0!
average mf latency per bank:
dram[0]:        346       342       344       340       347       351       344       343       338       338       338       358       340       340       343       344
dram[1]:        344       339       344       337       349       339       348       341       343       336       347       354       347       341       346       341
dram[2]:        352       347       353       344       356       350       353       348       351       344       350       346       351       342       352       343
dram[3]:        350       343       348       348       347       351       349       352       347       344       348       349       345       351       347       346
dram[4]:        349       350       348       347       354       343       356       346       344       346       363       347       351       343       348       346
dram[5]:        347       354       346       355       347       349       346       359       345       351       359       357       349       355       348       355
maximum mf latency per bank:
dram[0]:        565       515       580       551       596       599       603       563       533       567       557       803       547       564       575       549
dram[1]:        587       534       598       500       540       511       616       522       542       582       544       598       581       558       645       521
dram[2]:        599       572       602       537       621       580       663       629       656       657       582       600       611       559       583       578
dram[3]:        601       615       532       579       575       580       573       599       556       554       585       556       573       593       577       596
dram[4]:        591       582       712       554       622       570       608       568       608       574       640       626       610       609       610       564
dram[5]:        631       520       574       647       611       549       585       552       593       541       583       542       559       568       574       562

Number of Memory Banks Accessed per Memory Operation per Warp (from 0):
0	0	0	0	0	0	0	0	0	0	0	0	0	0	0	0	0	0	0	0	0	0	0	0	0	0	0	0	0	0	0	0	0	0	0	0	0	0	0	0	0	0	0	0	0	0	0	0	0	0	0	0	0	0	0	0	0	0	0	0	0	0	0	0	0	0	0	0	0	0	0	0	0	0	0	0	0	0	0	0	0	0	0	0	0	0	0	0	0	0	0	0	0	0	0	0	
Average # of Memory Banks Accessed per Memory Operation per Warp=-nan

position of mrq chosen
0	0	0	0	0	0	0	0	0	0	0	0	0	0	0	0	

average position of mrq chosen = -nan
Memory Partition 0: 
Cache L2_bank_000:
MSHR contents

Cache L2_bank_001:
MSHR contents

In Dram Latency Queue (total = 0): 
DRAM[0]: 16 bks, busW=4 BL=8 CL=12, tRRD=2 tCCD=6, tRCD=12 tRAS=28 tRP=12 tRC=40
n_cmd=93084 n_nop=54712 n_act=8262 n_pre=8246 n_req=10934 n_rd=21856 n_write=8 bw_util=0.4698
n_activity=85017 dram_eff=0.5143
bk0: 1350a 72194i bk1: 1344a 71750i bk2: 1344a 71088i bk3: 1344a 70511i bk4: 1364a 70363i bk5: 1364a 69970i bk6: 1408a 68683i bk7: 1408a 69077i bk8: 1408a 70321i bk9: 1408a 70154i bk10: 1368a 71051i bk11: 1370a 70433i bk12: 1344a 71607i bk13: 1344a 71125i bk14: 1344a 71631i bk15: 1344a 70864i 
dram_util_bins: 0 0 0 0 0 0 0 0 0 0
dram_eff_bins: 0 0 0 0 0 0 0 0 0 0
mrqq: max=16 avg=1.29014
Memory Partition 1: 
Cache L2_bank_002:
MSHR contents

Cache L2_bank_003:
MSHR contents

In Dram Latency Queue (total = 0): 
DRAM[1]: 16 bks, busW=4 BL=8 CL=12, tRRD=2 tCCD=6, tRCD=12 tRAS=28 tRP=12 tRC=40
n_cmd=93084 n_nop=54989 n_act=8128 n_pre=8112 n_req=10929 n_rd=21852 n_write=3 bw_util=0.4696
n_activity=84824 dram_eff=0.5153
bk0: 1348a 72628i bk1: 1344a 71215i bk2: 1344a 71374i bk3: 1344a 71533i bk4: 1364a 71216i bk5: 1364a 70522i bk6: 1408a 69633i bk7: 1408a 69512i bk8: 1408a 71198i bk9: 1408a 70717i bk10: 1368a 70526i bk11: 1368a 70801i bk12: 1344a 71441i bk13: 1344a 71576i bk14: 1344a 71414i bk15: 1344a 70438i 
dram_util_bins: 0 0 0 0 0 0 0 0 0 0
dram_eff_bins: 0 0 0 0 0 0 0 0 0 0
mrqq: max=16 avg=1.21695
Memory Partition 2: 
Cache L2_bank_004:
MSHR contents

Cache L2_bank_005:
MSHR contents

In Dram Latency Queue (total = 0): 
DRAM[2]: 16 bks, busW=4 BL=8 CL=12, tRRD=2 tCCD=6, tRCD=12 tRAS=28 tRP=12 tRC=40
n_cmd=93084 n_nop=54870 n_act=8189 n_pre=8173 n_req=10926 n_rd=21852 n_write=0 bw_util=0.4695
n_activity=84385 dram_eff=0.5179
bk0: 1348a 71924i bk1: 1344a 71619i bk2: 1344a 71677i bk3: 1344a 70634i bk4: 1364a 70071i bk5: 1368a 69455i bk6: 1408a 69493i bk7: 1408a 68921i bk8: 1408a 69440i bk9: 1408a 69873i bk10: 1368a 70882i bk11: 1364a 71777i bk12: 1344a 71625i bk13: 1344a 70740i bk14: 1344a 71071i bk15: 1344a 71199i 
dram_util_bins: 0 0 0 0 0 0 0 0 0 0
dram_eff_bins: 0 0 0 0 0 0 0 0 0 0
mrqq: max=16 avg=1.32135
Memory Partition 3: 
Cache L2_bank_006:
MSHR contents

Cache L2_bank_007:
MSHR contents

In Dram Latency Queue (total = 0): 
DRAM[3]: 16 bks, busW=4 BL=8 CL=12, tRRD=2 tCCD=6, tRCD=12 tRAS=28 tRP=12 tRC=40
n_cmd=93084 n_nop=55104 n_act=8073 n_pre=8057 n_req=10925 n_rd=21850 n_write=0 bw_util=0.4695
n_activity=84119 dram_eff=0.5195
bk0: 1346a 71371i bk1: 1344a 72001i bk2: 1344a 70589i bk3: 1344a 70399i bk4: 1364a 71248i bk5: 1368a 70115i bk6: 1408a 69189i bk7: 1408a 69567i bk8: 1408a 71235i bk9: 1408a 71145i bk10: 1368a 70860i bk11: 1364a 70529i bk12: 1344a 71086i bk13: 1344a 70767i bk14: 1344a 70864i bk15: 1344a 70470i 
dram_util_bins: 0 0 0 0 0 0 0 0 0 0
dram_eff_bins: 0 0 0 0 0 0 0 0 0 0
mrqq: max=16 avg=1.37343
Memory Partition 4: 
Cache L2_bank_008:
MSHR contents

Cache L2_bank_009:
MSHR contents

In Dram Latency Queue (total = 0): 
DRAM[4]: 16 bks, busW=4 BL=8 CL=12, tRRD=2 tCCD=6, tRCD=12 tRAS=28 tRP=12 tRC=40
n_cmd=93084 n_nop=54882 n_act=8182 n_pre=8166 n_req=10928 n_rd=21848 n_write=6 bw_util=0.4696
n_activity=84477 dram_eff=0.5174
bk0: 1344a 71102i bk1: 1344a 71269i bk2: 1344a 71125i bk3: 1344a 70986i bk4: 1364a 70128i bk5: 1368a 70365i bk6: 1408a 68560i bk7: 1408a 68744i bk8: 1408a 70173i bk9: 1408a 69874i bk10: 1368a 71298i bk11: 1364a 70816i bk12: 1344a 70835i bk13: 1344a 71170i bk14: 1344a 70941i bk15: 1344a 70865i 
dram_util_bins: 0 0 0 0 0 0 0 0 0 0
dram_eff_bins: 0 0 0 0 0 0 0 0 0 0
mrqq: max=16 avg=1.34903
Memory Partition 5: 
Cache L2_bank_010:
MSHR contents

Cache L2_bank_011:
MSHR contents

In Dram Latency Queue (total = 0): 
DRAM[5]: 16 bks, busW=4 BL=8 CL=12, tRRD=2 tCCD=6, tRCD=12 tRAS=28 tRP=12 tRC=40
n_cmd=93084 n_nop=55116 n_act=8067 n_pre=8051 n_req=10926 n_rd=21848 n_write=2 bw_util=0.4695
n_activity=84448 dram_eff=0.5175
bk0: 1344a 71798i bk1: 1344a 70696i bk2: 1344a 71053i bk3: 1344a 71258i bk4: 1364a 71154i bk5: 1368a 71010i bk6: 1408a 69741i bk7: 1408a 68529i bk8: 1408a 71434i bk9: 1408a 70652i bk10: 1368a 71465i bk11: 1364a 71132i bk12: 1344a 71163i bk13: 1344a 71223i bk14: 1344a 71220i bk15: 1344a 70918i 
dram_util_bins: 0 0 0 0 0 0 0 0 0 0
dram_eff_bins: 0 0 0 0 0 0 0 0 0 0
mrqq: max=16 avg=1.37272

========= L2 cache stats =========
L2_cache_bank[0]: Access = 5507, Miss = 5465, Miss_rate = 0.992, Pending_hits = 9, Reservation_fails = 422
L2_cache_bank[1]: Access = 5524, Miss = 5463, Miss_rate = 0.989, Pending_hits = 1, Reservation_fails = 73
L2_cache_bank[2]: Access = 5492, Miss = 5464, Miss_rate = 0.995, Pending_hits = 6, Reservation_fails = 317
L2_cache_bank[3]: Access = 5524, Miss = 5462, Miss_rate = 0.989, Pending_hits = 1, Reservation_fails = 78
L2_cache_bank[4]: Access = 5492, Miss = 5464, Miss_rate = 0.995, Pending_hits = 1, Reservation_fails = 127
L2_cache_bank[5]: Access = 5462, Miss = 5462, Miss_rate = 1.000, Pending_hits = 0, Reservation_fails = 125
L2_cache_bank[6]: Access = 5477, Miss = 5463, Miss_rate = 0.997, Pending_hits = 1, Reservation_fails = 96
L2_cache_bank[7]: Access = 5462, Miss = 5462, Miss_rate = 1.000, Pending_hits = 0, Reservation_fails = 138
L2_cache_bank[8]: Access = 5524, Miss = 5462, Miss_rate = 0.989, Pending_hits = 0, Reservation_fails = 210
L2_cache_bank[9]: Access = 5462, Miss = 5462, Miss_rate = 1.000, Pending_hits = 0, Reservation_fails = 84
L2_cache_bank[10]: Access = 5524, Miss = 5462, Miss_rate = 0.989, Pending_hits = 0, Reservation_fails = 59
L2_cache_bank[11]: Access = 5462, Miss = 5462, Miss_rate = 1.000, Pending_hits = 0, Reservation_fails = 127
L2_total_cache_accesses = 65912
L2_total_cache_misses = 65553
L2_total_cache_miss_rate = 0.9946
L2_total_cache_pending_hits = 19
L2_total_cache_reservation_fails = 1856
L2_total_cache_breakdown:
	L2_cache_stats_breakdown[GLOBAL_ACC_R][MISS] = 65536
	L2_cache_stats_breakdown[GLOBAL_ACC_R][RESERVATION_FAIL] = 1322
	L2_cache_stats_breakdown[CONST_ACC_R][HIT] = 11
	L2_cache_stats_breakdown[CONST_ACC_R][HIT_RESERVED] = 3
	L2_cache_stats_breakdown[CONST_ACC_R][MISS] = 1
	L2_cache_stats_breakdown[CONST_ACC_R][RESERVATION_FAIL] = 101
	L2_cache_stats_breakdown[GLOBAL_ACC_W][HIT] = 245
	L2_cache_stats_breakdown[GLOBAL_ACC_W][HIT_RESERVED] = 2
	L2_cache_stats_breakdown[GLOBAL_ACC_W][MISS] = 9
	L2_cache_stats_breakdown[INST_ACC_R][HIT] = 84
	L2_cache_stats_breakdown[INST_ACC_R][HIT_RESERVED] = 14
	L2_cache_stats_breakdown[INST_ACC_R][MISS] = 7
	L2_cache_stats_breakdown[INST_ACC_R][RESERVATION_FAIL] = 433
L2_cache_data_port_util = 0.001
L2_cache_fill_port_util = 0.310

icnt_total_pkts_mem_to_simt=328506
icnt_total_pkts_simt_to_mem=66168
LD_mem_lat_dist  0 0 0 0 0 0 0 0 0 0 0 0 0 0 0 0 0 0 0 0 0 0 0 0 0 0 0
ST_mem_lat_dist  0 0 0 0 0 0 0 0 0 0 0 0 0 0 0 0 0 0 0 0 0 0 0 0 0 0 0
----------------------------Interconnect-DETAILS--------------------------------
Class 0:
Packet latency average = 18.3061
	minimum = 6
	maximum = 146
Network latency average = 14.9637
	minimum = 6
	maximum = 123
Slowest packet = 9023
Flit latency average = 14.7989
	minimum = 6
	maximum = 119
Slowest flit = 26449
Fragmentation average = 0
	minimum = 0
	maximum = 0
Injected packet rate average = 0.0692348
	minimum = 0.058424 (at node 1)
	maximum = 0.0783335 (at node 16)
Accepted packet rate average = 0.0692348
	minimum = 0.058424 (at node 1)
	maximum = 0.0783335 (at node 16)
Injected flit rate average = 0.207285
	minimum = 0.0586509 (at node 1)
	maximum = 0.390037 (at node 15)
Accepted flit rate average= 0.207285
	minimum = 0.0774543 (at node 20)
	maximum = 0.327515 (at node 0)
Injected packet length average = 2.99395
Accepted packet length average = 2.99395
Total in-flight flits = 0 (0 measured)
====== Overall Traffic Statistics ======
====== Traffic class 0 ======
Packet latency average = 18.3061 (1 samples)
	minimum = 6 (1 samples)
	maximum = 146 (1 samples)
Network latency average = 14.9637 (1 samples)
	minimum = 6 (1 samples)
	maximum = 123 (1 samples)
Flit latency average = 14.7989 (1 samples)
	minimum = 6 (1 samples)
	maximum = 119 (1 samples)
Fragmentation average = 0 (1 samples)
	minimum = 0 (1 samples)
	maximum = 0 (1 samples)
Injected packet rate average = 0.0692348 (1 samples)
	minimum = 0.058424 (1 samples)
	maximum = 0.0783335 (1 samples)
Accepted packet rate average = 0.0692348 (1 samples)
	minimum = 0.058424 (1 samples)
	maximum = 0.0783335 (1 samples)
Injected flit rate average = 0.207285 (1 samples)
	minimum = 0.0586509 (1 samples)
	maximum = 0.390037 (1 samples)
Accepted flit rate average = 0.207285 (1 samples)
	minimum = 0.0774543 (1 samples)
	maximum = 0.327515 (1 samples)
Injected packet size average = 2.99395 (1 samples)
Accepted packet size average = 2.99395 (1 samples)
Hops average = 1 (1 samples)
----------------------------END-of-Interconnect-DETAILS-------------------------
GPGPU-Sim API: Stream Manager State


gpgpu_simulation_time = 0 days, 0 hrs, 1 min, 38 sec (98 sec)
gpgpu_simulation_rate = 249404 (inst/sec)
gpgpu_simulation_rate = 719 (cycle/sec)
GPGPU-Sim: detected inactive GPU simulation thread
GPU time: 96115.648438 msecs.
Reading back GPU result...
Checking GPU results...
..running CPU scalar product calculation
...comparing the results
L1 error: 3.070748E-08
TEST PASSED
Shutting down...
