

        *** GPGPU-Sim Simulator Version 3.2.2  [build 0] ***


GPGPU-Sim PTX: simulation mode 0 (can change with PTX_SIM_MODE_FUNC environment variable:
               1=functional simulation only, 0=detailed performance simulator)
GPGPU-Sim: Configuration options:

-network_mode                           1 # Interconnection network mode
-inter_config_file   config_fermi_islip.icnt # Interconnection network config file
-gpgpu_ptx_use_cuobjdump                    1 # Use cuobjdump to extract ptx and sass from binaries
-gpgpu_experimental_lib_support                    0 # Try to extract code from cuda libraries [Broken because of unknown cudaGetExportTable]
-gpgpu_ptx_convert_to_ptxplus                    0 # Convert SASS (native ISA) to ptxplus and run ptxplus
-gpgpu_ptx_force_max_capability                   20 # Force maximum compute capability
-gpgpu_ptx_inst_debug_to_file                    0 # Dump executed instructions' debug information to file
-gpgpu_ptx_inst_debug_file       inst_debug.txt # Executed instructions' debug output file
-gpgpu_ptx_inst_debug_thread_uid                    1 # Thread UID for executed instructions' debug output
-gpgpu_simd_model                       1 # 1 = post-dominator
-gpgpu_shader_core_pipeline              1536:32 # shader core pipeline config, i.e., {<nthread>:<warpsize>}
-gpgpu_tex_cache:l1  4:128:24,L:R:m:N:L,F:128:4,128:2 # per-shader L1 texture cache  (READ-ONLY) config  {<nsets>:<bsize>:<assoc>,<rep>:<wr>:<alloc>:<wr_alloc>,<mshr>:<N>:<merge>,<mq>:<rf>}
-gpgpu_const_cache:l1 64:64:2,L:R:f:N:L,A:2:32,4 # per-shader L1 constant memory cache  (READ-ONLY) config  {<nsets>:<bsize>:<assoc>,<rep>:<wr>:<alloc>:<wr_alloc>,<mshr>:<N>:<merge>,<mq>} 
-gpgpu_cache:il1     4:128:4,L:R:f:N:L,A:2:32,4 # shader L1 instruction cache config  {<nsets>:<bsize>:<assoc>,<rep>:<wr>:<alloc>:<wr_alloc>,<mshr>:<N>:<merge>,<mq>} 
-gpgpu_cache:dl1     32:128:4,L:L:m:N:H,A:32:8,8 # per-shader L1 data cache config  {<nsets>:<bsize>:<assoc>,<rep>:<wr>:<alloc>:<wr_alloc>,<mshr>:<N>:<merge>,<mq> | none}
-gpgpu_cache:dl1PrefL1                 none # per-shader L1 data cache config  {<nsets>:<bsize>:<assoc>,<rep>:<wr>:<alloc>:<wr_alloc>,<mshr>:<N>:<merge>,<mq> | none}
-gpgpu_cache:dl1PreShared                 none # per-shader L1 data cache config  {<nsets>:<bsize>:<assoc>,<rep>:<wr>:<alloc>:<wr_alloc>,<mshr>:<N>:<merge>,<mq> | none}
-gmem_skip_L1D                          0 # global memory access skip L1D cache (implements -Xptxas -dlcm=cg, default=no skip)
-gpgpu_perfect_mem                      0 # enable perfect memory mode (no cache miss)
-n_regfile_gating_group                    4 # group of lanes that should be read/written together)
-gpgpu_clock_gated_reg_file                    0 # enable clock gated reg file for power calculations
-gpgpu_clock_gated_lanes                    0 # enable clock gated lanes for power calculations
-gpgpu_shader_registers                32768 # Number of registers per shader core. Limits number of concurrent CTAs. (default 8192)
-gpgpu_shader_cta                       8 # Maximum number of concurrent CTAs in shader (default 8)
-gpgpu_num_cta_barriers                   16 # Maximum number of named barriers per CTA (default 16)
-gpgpu_n_clusters                      15 # number of processing clusters
-gpgpu_n_cores_per_cluster                    1 # number of simd cores per cluster
-gpgpu_n_cluster_ejection_buffer_size                    8 # number of packets in ejection buffer
-gpgpu_n_ldst_response_buffer_size                    2 # number of response packets in ld/st unit ejection buffer
-gpgpu_shmem_size                   16384 # Size of shared memory per shader core (default 16kB)
-gpgpu_shmem_size                   49152 # Size of shared memory per shader core (default 16kB)
-gpgpu_shmem_size_PrefL1                16384 # Size of shared memory per shader core (default 16kB)
-gpgpu_shmem_size_PrefShared                16384 # Size of shared memory per shader core (default 16kB)
-gpgpu_shmem_num_banks                   32 # Number of banks in the shared memory in each shader core (default 16)
-gpgpu_shmem_limited_broadcast                    0 # Limit shared memory to do one broadcast per cycle (default on)
-gpgpu_shmem_warp_parts                    1 # Number of portions a warp is divided into for shared memory bank conflict check 
-gpgpu_warpdistro_shader                   -1 # Specify which shader core to collect the warp size distribution from
-gpgpu_warp_issue_shader                    0 # Specify which shader core to collect the warp issue distribution from
-gpgpu_local_mem_map                    1 # Mapping from local memory space address to simulated GPU physical address space (default = enabled)
-gpgpu_num_reg_banks                   16 # Number of register banks (default = 8)
-gpgpu_reg_bank_use_warp_id                    0 # Use warp ID in mapping registers to banks (default = off)
-gpgpu_operand_collector_num_units_sp                    6 # number of collector units (default = 4)
-gpgpu_operand_collector_num_units_sfu                    8 # number of collector units (default = 4)
-gpgpu_operand_collector_num_units_mem                    2 # number of collector units (default = 2)
-gpgpu_operand_collector_num_units_gen                    0 # number of collector units (default = 0)
-gpgpu_operand_collector_num_in_ports_sp                    2 # number of collector unit in ports (default = 1)
-gpgpu_operand_collector_num_in_ports_sfu                    1 # number of collector unit in ports (default = 1)
-gpgpu_operand_collector_num_in_ports_mem                    1 # number of collector unit in ports (default = 1)
-gpgpu_operand_collector_num_in_ports_gen                    0 # number of collector unit in ports (default = 0)
-gpgpu_operand_collector_num_out_ports_sp                    2 # number of collector unit in ports (default = 1)
-gpgpu_operand_collector_num_out_ports_sfu                    1 # number of collector unit in ports (default = 1)
-gpgpu_operand_collector_num_out_ports_mem                    1 # number of collector unit in ports (default = 1)
-gpgpu_operand_collector_num_out_ports_gen                    0 # number of collector unit in ports (default = 0)
-gpgpu_coalesce_arch                   13 # Coalescing arch (default = 13, anything else is off for now)
-gpgpu_num_sched_per_core                    2 # Number of warp schedulers per core
-gpgpu_max_insn_issue_per_warp                    1 # Max number of instructions that can be issued per warp in one cycle by scheduler
-gpgpu_simt_core_sim_order                    1 # Select the simulation order of cores in a cluster (0=Fix, 1=Round-Robin)
-gpgpu_pipeline_widths        2,1,1,2,1,1,2 # Pipeline widths ID_OC_SP,ID_OC_SFU,ID_OC_MEM,OC_EX_SP,OC_EX_SFU,OC_EX_MEM,EX_WB
-gpgpu_num_sp_units                     2 # Number of SP units (default=1)
-gpgpu_num_sfu_units                    1 # Number of SF units (default=1)
-gpgpu_num_mem_units                    1 # Number if ldst units (default=1) WARNING: not hooked up to anything
-gpgpu_scheduler                      gto # Scheduler configuration: < lrr | gto | two_level_active > If two_level_active:<num_active_warps>:<inner_prioritization>:<outer_prioritization>For complete list of prioritization values see shader.h enum scheduler_prioritization_typeDefault: gto
-gpgpu_dram_scheduler                    1 # 0 = fifo, 1 = FR-FCFS (defaul)
-gpgpu_dram_partition_queues              8:8:8:8 # i2$:$2d:d2$:$2i
-l2_ideal                               0 # Use a ideal L2 cache that always hit
-gpgpu_cache:dl2     64:128:8,L:B:m:W:L,A:32:4,4:0,32 # unified banked L2 data cache config  {<nsets>:<bsize>:<assoc>,<rep>:<wr>:<alloc>:<wr_alloc>,<mshr>:<N>:<merge>,<mq>}
-gpgpu_cache:dl2_texture_only                    0 # L2 cache used for texture only
-gpgpu_n_mem                            3 # number of memory modules (e.g. memory controllers) in gpu
-gpgpu_n_sub_partition_per_mchannel                    2 # number of memory subpartition in each memory module
-gpgpu_n_mem_per_ctrlr                    2 # number of memory chips per memory controller
-gpgpu_memlatency_stat                   14 # track and display latency statistics 0x2 enables MC, 0x4 enables queue logs
-gpgpu_frfcfs_dram_sched_queue_size                   16 # 0 = unlimited (default); # entries per chip
-gpgpu_dram_return_queue_size                  116 # 0 = unlimited (default); # entries per chip
-gpgpu_dram_buswidth                    4 # default = 4 bytes (8 bytes per cycle at DDR)
-gpgpu_dram_burst_length                    8 # Burst length of each DRAM request (default = 4 data bus cycle)
-dram_data_command_freq_ratio                    4 # Frequency ratio between DRAM data bus and command bus (default = 2 times, i.e. DDR)
-gpgpu_dram_timing_opt nbk=16:CCD=2:RRD=6:RCD=12:RAS=28:RP=12:RC=40: CL=12:WL=4:CDLR=5:WR=12:nbkgrp=4:CCDL=3:RTPL=2 # DRAM timing parameters = {nbk:tCCD:tRRD:tRCD:tRAS:tRP:tRC:CL:WL:tCDLR:tWR:nbkgrp:tCCDL:tRTPL}
-rop_latency                          120 # ROP queue latency (default 85)
-dram_latency                         100 # DRAM latency (default 30)
-gpgpu_mem_addr_mapping dramid@8;00000000.00000000.00000000.00000000.0000RRRR.RRRRRRRR.BBBCCCCB.CCSSSSSS # mapping memory address to dram model {dramid@<start bit>;<memory address map>}
-gpgpu_mem_addr_test                    0 # run sweep test to check address mapping for aliased address
-gpgpu_mem_address_mask                    1 # 0 = old addressing mask, 1 = new addressing mask, 2 = new add. mask + flipped bank sel and chip sel bits
-gpuwattch_xml_file  gpuwattch_gtx480.xml # GPUWattch XML file
-power_simulation_enabled                    0 # Turn on power simulator (1=On, 0=Off)
-power_per_cycle_dump                    0 # Dump detailed power output each cycle
-power_trace_enabled                    0 # produce a file for the power trace (1=On, 0=Off)
-power_trace_zlevel                     6 # Compression level of the power trace output log (0=no comp, 9=highest)
-steady_power_levels_enabled                    0 # produce a file for the steady power levels (1=On, 0=Off)
-steady_state_definition                  8:4 # allowed deviation:number of samples
-gpgpu_max_cycle                        0 # terminates gpu simulation early (0 = no limit)
-gpgpu_max_insn                         0 # terminates gpu simulation early (0 = no limit)
-gpgpu_max_cta                          0 # terminates gpu simulation early (0 = no limit)
-gpgpu_runtime_stat                   500 # display runtime statistics such as dram utilization {<freq>:<flag>}
-liveness_message_freq                    1 # Minimum number of seconds between simulation liveness messages (0 = always print)
-gpgpu_flush_l1_cache                    0 # Flush L1 cache at the end of each kernel call
-gpgpu_flush_l2_cache                    0 # Flush L2 cache at the end of each kernel call
-gpgpu_deadlock_detect                    1 # Stop the simulation at deadlock (1=on (default), 0=off)
-gpgpu_ptx_instruction_classification                    0 # if enabled will classify ptx instruction types per kernel (Max 255 kernels now)
-gpgpu_ptx_sim_mode                     0 # Select between Performance (default) or Functional simulation (1)
-gpgpu_clock_domains 700.0:700.0:700.0:924.0 # Clock Domain Frequencies in MhZ {<Core Clock>:<ICNT Clock>:<L2 Clock>:<DRAM Clock>}
-gpgpu_max_concurrent_kernel                    8 # maximum kernels that can run concurrently on GPU
-gpgpu_cflog_interval                    0 # Interval between each snapshot in control flow logger
-visualizer_enabled                     0 # Turn on visualizer output (1=On, 0=Off)
-visualizer_outputfile                 NULL # Specifies the output log file for visualizer
-visualizer_zlevel                      6 # Compression level of the visualizer output log (0=no comp, 9=highest)
-trace_enabled                          0 # Turn on traces
-trace_components                    none # comma seperated list of traces to enable. Complete list found in trace_streams.tup. Default none
-trace_sampling_core                    0 # The core which is printed using CORE_DPRINTF. Default 0
-trace_sampling_memory_partition                   -1 # The memory partition which is printed using MEMPART_DPRINTF. Default -1 (i.e. all)
-enable_ptx_file_line_stats                    1 # Turn on PTX source line statistic profiling. (1 = On)
-ptx_line_stats_filename gpgpu_inst_stats.txt # Output file for PTX source line statistics.
-save_embedded_ptx                      0 # saves ptx files embedded in binary as <n>.ptx
-keep                                   0 # keep intermediate files created by GPGPU-Sim when interfacing with external programs
-gpgpu_ptx_save_converted_ptxplus                    0 # Saved converted ptxplus to a file
-ptx_opcode_latency_int         4,13,4,5,145 # Opcode latencies for integers <ADD,MAX,MUL,MAD,DIV>Default 1,1,19,25,145
-ptx_opcode_latency_fp          4,13,4,5,39 # Opcode latencies for single precision floating points <ADD,MAX,MUL,MAD,DIV>Default 1,1,1,1,30
-ptx_opcode_latency_dp         8,19,8,8,330 # Opcode latencies for double precision floating points <ADD,MAX,MUL,MAD,DIV>Default 8,8,8,8,335
-ptx_opcode_initiation_int            1,2,2,1,8 # Opcode initiation intervals for integers <ADD,MAX,MUL,MAD,DIV>Default 1,1,4,4,32
-ptx_opcode_initiation_fp            1,2,1,1,4 # Opcode initiation intervals for single precision floating points <ADD,MAX,MUL,MAD,DIV>Default 1,1,1,1,5
-ptx_opcode_initiation_dp         8,16,8,8,130 # Opcode initiation intervals for double precision floating points <ADD,MAX,MUL,MAD,DIV>Default 8,8,8,8,130
DRAM Timing Options:
nbk                                    16 # number of banks
CCD                                     2 # column to column delay
RRD                                     6 # minimal delay between activation of rows in different banks
RCD                                    12 # row to column delay
RAS                                    28 # time needed to activate row
RP                                     12 # time needed to precharge (deactivate) row
RC                                     40 # row cycle time
CDLR                                    5 # switching from write to read (changes tWTR)
WR                                     12 # last data-in to row precharge
CL                                     12 # CAS latency
WL                                      4 # Write latency
nbkgrp                                  4 # number of bank groups
CCDL                                    3 # column to column delay between accesses to different bank groups
RTPL                                    2 # read to precharge delay between accesses to different bank groups
Total number of memory sub partition = 6
addr_dec_mask[CHIP]  = 0000000000000000 	high:64 low:0
addr_dec_mask[BK]    = 000000000000e100 	high:16 low:8
addr_dec_mask[ROW]   = 000000000fff0000 	high:28 low:16
addr_dec_mask[COL]   = 0000000000001eff 	high:13 low:0
addr_dec_mask[BURST] = 000000000000003f 	high:6 low:0
sub_partition_id_mask = 0000000000000100
GPGPU-Sim uArch: clock freqs: 700000000.000000:700000000.000000:700000000.000000:924000000.000000
GPGPU-Sim uArch: clock periods: 0.00000000142857142857:0.00000000142857142857:0.00000000142857142857:0.00000000108225108225
*** Initializing Memory Statistics ***
GPGPU-Sim uArch: interconnect node map (shaderID+MemID to icntID)
GPGPU-Sim uArch: Memory nodes ID start from index: 15
GPGPU-Sim uArch:    0   1   2   3   4
GPGPU-Sim uArch:    5   6   7   8   9
GPGPU-Sim uArch:   10  11  12  13  14
GPGPU-Sim uArch:   15  16  17  18  19
GPGPU-Sim uArch:   20  21  22  23  24
GPGPU-Sim uArch:   25  26
GPGPU-Sim uArch: interconnect node reverse map (icntID to shaderID+MemID)
GPGPU-Sim uArch: Memory nodes start from ID: 15
GPGPU-Sim uArch:    0   1   2   3   4
GPGPU-Sim uArch:    5   6   7   8   9
GPGPU-Sim uArch:   10  11  12  13  14
GPGPU-Sim uArch:   15  16  17  18  19
GPGPU-Sim uArch:   20  21  22  23  24
GPGPU-Sim uArch:   25  26
316bcbff5f8f022bb22b20bb4721e93e  /sciclone/data20/adwait/applications/benchmarks/CUDA/RAY/gpgpu_ptx_sim__RAY
GPGPU-Sim uArch: performance model initialization complete.
GPGPU-Sim PTX: __cudaRegisterFatBinary, fat_cubin_handle = 1, filename=rayTracing.cu
self exe links to: /sciclone/data20/adwait/applications/benchmarks/CUDA/RAY/gpgpu_ptx_sim__RAY
Running md5sum using "md5sum /sciclone/data20/adwait/applications/benchmarks/CUDA/RAY/gpgpu_ptx_sim__RAY "
Parsing file _cuobjdump_complete_output_Cx1U25
######### cuobjdump parser ########
## Adding new section ELF
Adding arch: sm_20
Adding identifier: rayTracing.cu
## Adding new section PTX
Adding ptx filename: _cuobjdump_1.ptx
Adding arch: sm_20
Adding identifier: rayTracing.cu
Done parsing!!!
GPGPU-Sim PTX: __cudaRegisterFunction _Z6renderPjP4Nodejjff : hostFun 0x0x40ce13, fat_cubin_handle = 1
GPGPU-Sim PTX: allocating stack frame region for .param "__cudaretf__Zmi6float3S_" from 0x0 to 0xc
GPGPU-Sim PTX: allocating stack frame region for .param "__cudaparmf1__Zmi6float3S_" from 0xc to 0x18
GPGPU-Sim PTX: allocating stack frame region for .param "__cudaparmf2__Zmi6float3S_" from 0x18 to 0x24
GPGPU-Sim PTX: allocating stack frame region for .param "__cudaretf__Z9normalize6float3" from 0x0 to 0xc
GPGPU-Sim PTX: allocating stack frame region for .param "__cudaparmf1__Z9normalize6float3" from 0xc to 0x18
GPGPU-Sim PTX: allocating stack frame region for .param "__cudaretf__Z18intersectionSphere5Rayon6float3f" from 0x0 to 0x4
GPGPU-Sim PTX: allocating stack frame region for .param "__cudaparmf1__Z18intersectionSphere5Rayon6float3f" from 0x4 to 0x1c
GPGPU-Sim PTX: allocating stack frame region for .param "__cudaparmf2__Z18intersectionSphere5Rayon6float3f" from 0x1c to 0x28
GPGPU-Sim PTX: allocating stack frame region for .param "__cudaparmf3__Z18intersectionSphere5Rayon6float3f" from 0x28 to 0x2c
GPGPU-Sim PTX: allocating stack frame region for .param "__cudaretf__Z16intersectionPlan5Rayon6float3S0_" from 0x0 to 0x4
GPGPU-Sim PTX: allocating stack frame region for .param "__cudaparmf1__Z16intersectionPlan5Rayon6float3S0_" from 0x4 to 0x1c
GPGPU-Sim PTX: allocating stack frame region for .param "__cudaparmf2__Z16intersectionPlan5Rayon6float3S0_" from 0x1c to 0x28
GPGPU-Sim PTX: allocating stack frame region for .param "__cudaparmf3__Z16intersectionPlan5Rayon6float3S0_" from 0x28 to 0x34
GPGPU-Sim PTX: allocating stack frame region for .param "__cudaretf__Z10getNormale6float3S_" from 0x0 to 0xc
GPGPU-Sim PTX: allocating stack frame region for .param "__cudaparmf1__Z10getNormale6float3S_" from 0xc to 0x18
GPGPU-Sim PTX: allocating stack frame region for .param "__cudaparmf2__Z10getNormale6float3S_" from 0x18 to 0x24
GPGPU-Sim PTX: allocating stack frame region for .param "__cudaretf__Z11getNormaleP6float3" from 0x0 to 0xc
GPGPU-Sim PTX: allocating stack frame region for .param "__cudaparmf1__Z11getNormaleP6float3" from 0xc to 0x18
GPGPU-Sim PTX: allocating stack frame region for .param "__cudaretf__Z14rgbaFloatToInt6float4" from 0x0 to 0x4
GPGPU-Sim PTX: allocating stack frame region for .param "__cudaparmf1__Z14rgbaFloatToInt6float4" from 0x4 to 0x14
GPGPU-Sim PTX: allocating stack frame region for .param "__cudaretf__Z12notShadowRayP4Node6float3S1_f" from 0x0 to 0x4
GPGPU-Sim PTX: allocating stack frame region for .param "__cudaparmf1__Z12notShadowRayP4Node6float3S1_f" from 0x4 to 0xc
GPGPU-Sim PTX: allocating stack frame region for .param "__cudaparmf2__Z12notShadowRayP4Node6float3S1_f" from 0xc to 0x18
GPGPU-Sim PTX: allocating stack frame region for .param "__cudaparmf3__Z12notShadowRayP4Node6float3S1_f" from 0x18 to 0x24
GPGPU-Sim PTX: allocating stack frame region for .param "__cudaparmf4__Z12notShadowRayP4Node6float3S1_f" from 0x24 to 0x28
GPGPU-Sim PTX: allocating stack frame region for .param "__cudaretf__Z15float2int_pow20f" from 0x0 to 0x4
GPGPU-Sim PTX: allocating stack frame region for .param "__cudaparmf1__Z15float2int_pow20f" from 0x4 to 0x8
GPGPU-Sim PTX: allocating stack frame region for .param "__cudaretf__Z15float2int_pow50f" from 0x0 to 0x4
GPGPU-Sim PTX: allocating stack frame region for .param "__cudaparmf1__Z15float2int_pow50f" from 0x4 to 0x8
GPGPU-Sim PTX: allocating stack frame region for .param "__cudaparmf1__ZN4dim3C1Ejjj" from 0x0 to 0x8
GPGPU-Sim PTX: allocating stack frame region for .param "__cudaparmf2__ZN4dim3C1Ejjj" from 0x8 to 0xc
GPGPU-Sim PTX: allocating stack frame region for .param "__cudaparmf3__ZN4dim3C1Ejjj" from 0xc to 0x10
GPGPU-Sim PTX: allocating stack frame region for .param "__cudaparmf4__ZN4dim3C1Ejjj" from 0x10 to 0x14
GPGPU-Sim PTX: instruction assembly for function '_Zmi6float3S_'...   done.
GPGPU-Sim PTX: finding reconvergence points for '_Zmi6float3S_'...
GPGPU-Sim PTX: Finding dominators for '_Zmi6float3S_'...
GPGPU-Sim PTX: Finding immediate dominators for '_Zmi6float3S_'...
GPGPU-Sim PTX: Finding postdominators for '_Zmi6float3S_'...
GPGPU-Sim PTX: Finding immediate postdominators for '_Zmi6float3S_'...
GPGPU-Sim PTX: pre-decoding instructions for '_Zmi6float3S_'...
GPGPU-Sim PTX: reconvergence points for _Zmi6float3S_...
GPGPU-Sim PTX: ... end of reconvergence points for _Zmi6float3S_
GPGPU-Sim PTX: ... done pre-decoding instructions for '_Zmi6float3S_'.
GPGPU-Sim PTX: instruction assembly for function '_Z9normalize6float3'...   done.
GPGPU-Sim PTX: finding reconvergence points for '_Z9normalize6float3'...
GPGPU-Sim PTX: Finding dominators for '_Z9normalize6float3'...
GPGPU-Sim PTX: Finding immediate dominators for '_Z9normalize6float3'...
GPGPU-Sim PTX: Finding postdominators for '_Z9normalize6float3'...
GPGPU-Sim PTX: Finding immediate postdominators for '_Z9normalize6float3'...
GPGPU-Sim PTX: pre-decoding instructions for '_Z9normalize6float3'...
GPGPU-Sim PTX: reconvergence points for _Z9normalize6float3...
GPGPU-Sim PTX: ... end of reconvergence points for _Z9normalize6float3
GPGPU-Sim PTX: ... done pre-decoding instructions for '_Z9normalize6float3'.
GPGPU-Sim PTX: instruction assembly for function '_Z18intersectionSphere5Rayon6float3f'...   done.
GPGPU-Sim PTX: finding reconvergence points for '_Z18intersectionSphere5Rayon6float3f'...
GPGPU-Sim PTX: Finding dominators for '_Z18intersectionSphere5Rayon6float3f'...
GPGPU-Sim PTX: Finding immediate dominators for '_Z18intersectionSphere5Rayon6float3f'...
GPGPU-Sim PTX: Finding postdominators for '_Z18intersectionSphere5Rayon6float3f'...
GPGPU-Sim PTX: Finding immediate postdominators for '_Z18intersectionSphere5Rayon6float3f'...
GPGPU-Sim PTX: pre-decoding instructions for '_Z18intersectionSphere5Rayon6float3f'...
GPGPU-Sim PTX: reconvergence points for _Z18intersectionSphere5Rayon6float3f...
GPGPU-Sim PTX:  1 (potential) branch divergence @  PC=0x250 (_1.ptx:173) @%p2 bra $Lt_2_3074;
GPGPU-Sim PTX:    immediate post dominator      @  PC=0x2c0 (_1.ptx:193) mov.f32 %f39, %f32;
GPGPU-Sim PTX:  2 (potential) branch divergence @  PC=0x260 (_1.ptx:175) bra.uni $Lt_2_2818;
GPGPU-Sim PTX:    immediate post dominator      @  PC=0x2c0 (_1.ptx:193) mov.f32 %f39, %f32;
GPGPU-Sim PTX:  3 (potential) branch divergence @  PC=0x280 (_1.ptx:180) @!%p3 bra $Lt_2_3586;
GPGPU-Sim PTX:    immediate post dominator      @  PC=0x2c0 (_1.ptx:193) mov.f32 %f39, %f32;
GPGPU-Sim PTX:  4 (potential) branch divergence @  PC=0x290 (_1.ptx:182) bra.uni $Lt_2_3330;
GPGPU-Sim PTX:    immediate post dominator      @  PC=0x2c0 (_1.ptx:193) mov.f32 %f39, %f32;
GPGPU-Sim PTX: ... end of reconvergence points for _Z18intersectionSphere5Rayon6float3f
GPGPU-Sim PTX: ... done pre-decoding instructions for '_Z18intersectionSphere5Rayon6float3f'.
GPGPU-Sim PTX: instruction assembly for function '_Z16intersectionPlan5Rayon6float3S0_'...   done.
GPGPU-Sim PTX: finding reconvergence points for '_Z16intersectionPlan5Rayon6float3S0_'...
GPGPU-Sim PTX: Finding dominators for '_Z16intersectionPlan5Rayon6float3S0_'...
GPGPU-Sim PTX: Finding immediate dominators for '_Z16intersectionPlan5Rayon6float3S0_'...
GPGPU-Sim PTX: Finding postdominators for '_Z16intersectionPlan5Rayon6float3S0_'...
GPGPU-Sim PTX: Finding immediate postdominators for '_Z16intersectionPlan5Rayon6float3S0_'...
GPGPU-Sim PTX: pre-decoding instructions for '_Z16intersectionPlan5Rayon6float3S0_'...
GPGPU-Sim PTX: reconvergence points for _Z16intersectionPlan5Rayon6float3S0_...
GPGPU-Sim PTX:  1 (potential) branch divergence @  PC=0x320 (_1.ptx:214) @!%p1 bra $Lt_3_2050;
GPGPU-Sim PTX:    immediate post dominator      @  PC=0x368 (_1.ptx:227) mov.f32 %f14, %f9;
GPGPU-Sim PTX:  2 (potential) branch divergence @  PC=0x330 (_1.ptx:216) bra.uni $Lt_3_1794;
GPGPU-Sim PTX:    immediate post dominator      @  PC=0x368 (_1.ptx:227) mov.f32 %f14, %f9;
GPGPU-Sim PTX: ... end of reconvergence points for _Z16intersectionPlan5Rayon6float3S0_
GPGPU-Sim PTX: ... done pre-decoding instructions for '_Z16intersectionPlan5Rayon6float3S0_'.
GPGPU-Sim PTX: instruction assembly for function '_Z10getNormale6float3S_'...   done.
GPGPU-Sim PTX: finding reconvergence points for '_Z10getNormale6float3S_'...
GPGPU-Sim PTX: Finding dominators for '_Z10getNormale6float3S_'...
GPGPU-Sim PTX: Finding immediate dominators for '_Z10getNormale6float3S_'...
GPGPU-Sim PTX: Finding postdominators for '_Z10getNormale6float3S_'...
GPGPU-Sim PTX: Finding immediate postdominators for '_Z10getNormale6float3S_'...
GPGPU-Sim PTX: pre-decoding instructions for '_Z10getNormale6float3S_'...
GPGPU-Sim PTX: reconvergence points for _Z10getNormale6float3S_...
GPGPU-Sim PTX: ... end of reconvergence points for _Z10getNormale6float3S_
GPGPU-Sim PTX: ... done pre-decoding instructions for '_Z10getNormale6float3S_'.
GPGPU-Sim PTX: instruction assembly for function '_Z11getNormaleP6float3'...   done.
GPGPU-Sim PTX: finding reconvergence points for '_Z11getNormaleP6float3'...
GPGPU-Sim PTX: Finding dominators for '_Z11getNormaleP6float3'...
GPGPU-Sim PTX: Finding immediate dominators for '_Z11getNormaleP6float3'...
GPGPU-Sim PTX: Finding postdominators for '_Z11getNormaleP6float3'...
GPGPU-Sim PTX: Finding immediate postdominators for '_Z11getNormaleP6float3'...
GPGPU-Sim PTX: pre-decoding instructions for '_Z11getNormaleP6float3'...
GPGPU-Sim PTX: reconvergence points for _Z11getNormaleP6float3...
GPGPU-Sim PTX: ... end of reconvergence points for _Z11getNormaleP6float3
GPGPU-Sim PTX: ... done pre-decoding instructions for '_Z11getNormaleP6float3'.
GPGPU-Sim PTX: instruction assembly for function '_Z14rgbaFloatToInt6float4'...   done.
GPGPU-Sim PTX: finding reconvergence points for '_Z14rgbaFloatToInt6float4'...
GPGPU-Sim PTX: Finding dominators for '_Z14rgbaFloatToInt6float4'...
GPGPU-Sim PTX: Finding immediate dominators for '_Z14rgbaFloatToInt6float4'...
GPGPU-Sim PTX: Finding postdominators for '_Z14rgbaFloatToInt6float4'...
GPGPU-Sim PTX: Finding immediate postdominators for '_Z14rgbaFloatToInt6float4'...
GPGPU-Sim PTX: pre-decoding instructions for '_Z14rgbaFloatToInt6float4'...
GPGPU-Sim PTX: reconvergence points for _Z14rgbaFloatToInt6float4...
GPGPU-Sim PTX: ... end of reconvergence points for _Z14rgbaFloatToInt6float4
GPGPU-Sim PTX: ... done pre-decoding instructions for '_Z14rgbaFloatToInt6float4'.
GPGPU-Sim PTX: allocating global region for "cnode" from 0x100 to 0x1a0 (global memory space)
GPGPU-Sim PTX: instruction assembly for function '_Z12notShadowRayP4Node6float3S1_f'...   done.
GPGPU-Sim PTX: finding reconvergence points for '_Z12notShadowRayP4Node6float3S1_f'...
GPGPU-Sim PTX: Finding dominators for '_Z12notShadowRayP4Node6float3S1_f'...
GPGPU-Sim PTX: Finding immediate dominators for '_Z12notShadowRayP4Node6float3S1_f'...
GPGPU-Sim PTX: Finding postdominators for '_Z12notShadowRayP4Node6float3S1_f'...
GPGPU-Sim PTX: Finding immediate postdominators for '_Z12notShadowRayP4Node6float3S1_f'...
GPGPU-Sim PTX: pre-decoding instructions for '_Z12notShadowRayP4Node6float3S1_f'...
GPGPU-Sim PTX: reconvergence points for _Z12notShadowRayP4Node6float3S1_f...
GPGPU-Sim PTX:  1 (potential) branch divergence @  PC=0x638 (_1.ptx:364) @%p1 bra $Lt_7_8450;
GPGPU-Sim PTX:    immediate post dominator      @  PC=0x828 (_1.ptx:441) mov.f32 %f58, 0f00000000;    // 0
GPGPU-Sim PTX:  2 (potential) branch divergence @  PC=0x658 (_1.ptx:369) @!%p2 bra $Lt_7_8962;
GPGPU-Sim PTX:    immediate post dominator      @  PC=0x6b8 (_1.ptx:385) mov.f32 %f28, %f20;
GPGPU-Sim PTX:  3 (potential) branch divergence @  PC=0x668 (_1.ptx:371) bra.uni $Lt_7_8706;
GPGPU-Sim PTX:    immediate post dominator      @  PC=0x6b8 (_1.ptx:385) mov.f32 %f28, %f20;
GPGPU-Sim PTX:  4 (potential) branch divergence @  PC=0x6c0 (_1.ptx:386) bra.uni $Lt_7_8194;
GPGPU-Sim PTX:    immediate post dominator      @  PC=0x828 (_1.ptx:441) mov.f32 %f58, 0f00000000;    // 0
GPGPU-Sim PTX:  5 (potential) branch divergence @  PC=0x7b0 (_1.ptx:418) @%p5 bra $Lt_7_9474;
GPGPU-Sim PTX:    immediate post dominator      @  PC=0x820 (_1.ptx:438) mov.f32 %f28, %f51;
GPGPU-Sim PTX:  6 (potential) branch divergence @  PC=0x7c0 (_1.ptx:420) bra.uni $Lt_7_9730;
GPGPU-Sim PTX:    immediate post dominator      @  PC=0x820 (_1.ptx:438) mov.f32 %f28, %f51;
GPGPU-Sim PTX:  7 (potential) branch divergence @  PC=0x7e0 (_1.ptx:425) @!%p6 bra $Lt_7_9986;
GPGPU-Sim PTX:    immediate post dominator      @  PC=0x820 (_1.ptx:438) mov.f32 %f28, %f51;
GPGPU-Sim PTX:  8 (potential) branch divergence @  PC=0x7f0 (_1.ptx:427) bra.uni $Lt_7_9730;
GPGPU-Sim PTX:    immediate post dominator      @  PC=0x820 (_1.ptx:438) mov.f32 %f28, %f51;
GPGPU-Sim PTX:  9 (potential) branch divergence @  PC=0x838 (_1.ptx:443) @!%p7 bra $Lt_7_10242;
GPGPU-Sim PTX:    immediate post dominator      @  PC=0x8e8 (_1.ptx:468) add.s32 %r1, %r1, 1;
GPGPU-Sim PTX: 10 (potential) branch divergence @  PC=0x8d8 (_1.ptx:463) @!%p8 bra $Lt_7_10242;
GPGPU-Sim PTX:    immediate post dominator      @  PC=0x8e8 (_1.ptx:468) add.s32 %r1, %r1, 1;
GPGPU-Sim PTX: 11 (potential) branch divergence @  PC=0x908 (_1.ptx:472) @%p9 bra $Lt_7_10754;
GPGPU-Sim PTX:    immediate post dominator      @  PC=0x960 (_1.ptx:486) selp.s32 %r10, 1, 0, %p11;
GPGPU-Sim PTX: 12 (potential) branch divergence @  PC=0x930 (_1.ptx:477) @%p10 bra $L_7_7170;
GPGPU-Sim PTX:    immediate post dominator      @  PC=0x960 (_1.ptx:486) selp.s32 %r10, 1, 0, %p11;
GPGPU-Sim PTX: 13 (potential) branch divergence @  PC=0x938 (_1.ptx:478) bra.uni $L_7_7938;
GPGPU-Sim PTX:    immediate post dominator      @  PC=0x960 (_1.ptx:486) selp.s32 %r10, 1, 0, %p11;
GPGPU-Sim PTX: ... end of reconvergence points for _Z12notShadowRayP4Node6float3S1_f
GPGPU-Sim PTX: ... done pre-decoding instructions for '_Z12notShadowRayP4Node6float3S1_f'.
GPGPU-Sim PTX: instruction assembly for function '_Z15float2int_pow20f'...   done.
GPGPU-Sim PTX: finding reconvergence points for '_Z15float2int_pow20f'...
GPGPU-Sim PTX: Finding dominators for '_Z15float2int_pow20f'...
GPGPU-Sim PTX: Finding immediate dominators for '_Z15float2int_pow20f'...
GPGPU-Sim PTX: Finding postdominators for '_Z15float2int_pow20f'...
GPGPU-Sim PTX: Finding immediate postdominators for '_Z15float2int_pow20f'...
GPGPU-Sim PTX: pre-decoding instructions for '_Z15float2int_pow20f'...
GPGPU-Sim PTX: reconvergence points for _Z15float2int_pow20f...
GPGPU-Sim PTX: ... end of reconvergence points for _Z15float2int_pow20f
GPGPU-Sim PTX: ... done pre-decoding instructions for '_Z15float2int_pow20f'.
GPGPU-Sim PTX: instruction assembly for function '_Z15float2int_pow50f'...   done.
GPGPU-Sim PTX: finding reconvergence points for '_Z15float2int_pow50f'...
GPGPU-Sim PTX: Finding dominators for '_Z15float2int_pow50f'...
GPGPU-Sim PTX: Finding immediate dominators for '_Z15float2int_pow50f'...
GPGPU-Sim PTX: Finding postdominators for '_Z15float2int_pow50f'...
GPGPU-Sim PTX: Finding immediate postdominators for '_Z15float2int_pow50f'...
GPGPU-Sim PTX: pre-decoding instructions for '_Z15float2int_pow50f'...
GPGPU-Sim PTX: reconvergence points for _Z15float2int_pow50f...
GPGPU-Sim PTX: ... end of reconvergence points for _Z15float2int_pow50f
GPGPU-Sim PTX: ... done pre-decoding instructions for '_Z15float2int_pow50f'.
GPGPU-Sim PTX: allocating constant region for "MView" from 0x200 to 0x230 (global memory space) 1
GPGPU-Sim PTX: allocating stack frame region for .local "__cuda___cuda_local_var_35463_9_non_const_pile_32240" from 0x0 to 0x50
GPGPU-Sim PTX: instruction assembly for function '_Z6renderPjP4Nodejjff'...   done.
GPGPU-Sim PTX: finding reconvergence points for '_Z6renderPjP4Nodejjff'...
GPGPU-Sim PTX: Finding dominators for '_Z6renderPjP4Nodejjff'...
GPGPU-Sim PTX: Finding immediate dominators for '_Z6renderPjP4Nodejjff'...
GPGPU-Sim PTX: Finding postdominators for '_Z6renderPjP4Nodejjff'...
GPGPU-Sim PTX: Finding immediate postdominators for '_Z6renderPjP4Nodejjff'...
GPGPU-Sim PTX: pre-decoding instructions for '_Z6renderPjP4Nodejjff'...
GPGPU-Sim PTX: reconvergence points for _Z6renderPjP4Nodejjff...
GPGPU-Sim PTX:  1 (potential) branch divergence @  PC=0xdb0 (_1.ptx:663) @%p1 bra $Lt_10_44034;
GPGPU-Sim PTX:    immediate post dominator      @  PC=0x2370 (_1.ptx:1495) exit;
GPGPU-Sim PTX:  2 (potential) branch divergence @  PC=0x1028 (_1.ptx:751) @%p2 bra $Lt_10_45570;
GPGPU-Sim PTX:    immediate post dominator      @  PC=0x11b8 (_1.ptx:815) mov.f32 %f108, 0f00000000;   // 0
GPGPU-Sim PTX:  3 (potential) branch divergence @  PC=0x1048 (_1.ptx:756) @!%p3 bra $Lt_10_46082;
GPGPU-Sim PTX:    immediate post dominator      @  PC=0x1090 (_1.ptx:769) mov.f32 %f87, %f82;
GPGPU-Sim PTX:  4 (potential) branch divergence @  PC=0x1058 (_1.ptx:758) bra.uni $Lt_10_45826;
GPGPU-Sim PTX:    immediate post dominator      @  PC=0x1090 (_1.ptx:769) mov.f32 %f87, %f82;
GPGPU-Sim PTX:  5 (potential) branch divergence @  PC=0x1098 (_1.ptx:770) bra.uni $Lt_10_45314;
GPGPU-Sim PTX:    immediate post dominator      @  PC=0x11b8 (_1.ptx:815) mov.f32 %f108, 0f00000000;   // 0
GPGPU-Sim PTX:  6 (potential) branch divergence @  PC=0x1140 (_1.ptx:793) @%p6 bra $Lt_10_46594;
GPGPU-Sim PTX:    immediate post dominator      @  PC=0x11b0 (_1.ptx:813) mov.f32 %f87, %f101;
GPGPU-Sim PTX:  7 (potential) branch divergence @  PC=0x1150 (_1.ptx:795) bra.uni $Lt_10_46850;
GPGPU-Sim PTX:    immediate post dominator      @  PC=0x11b0 (_1.ptx:813) mov.f32 %f87, %f101;
GPGPU-Sim PTX:  8 (potential) branch divergence @  PC=0x1170 (_1.ptx:800) @!%p7 bra $Lt_10_47106;
GPGPU-Sim PTX:    immediate post dominator      @  PC=0x11b0 (_1.ptx:813) mov.f32 %f87, %f101;
GPGPU-Sim PTX:  9 (potential) branch divergence @  PC=0x1180 (_1.ptx:802) bra.uni $Lt_10_46850;
GPGPU-Sim PTX:    immediate post dominator      @  PC=0x11b0 (_1.ptx:813) mov.f32 %f87, %f101;
GPGPU-Sim PTX: 10 (potential) branch divergence @  PC=0x11f8 (_1.ptx:823) @%p8 bra $Lt_10_47362;
GPGPU-Sim PTX:    immediate post dominator      @  PC=0x1210 (_1.ptx:829) add.s32 %r25, %r25, 1;
GPGPU-Sim PTX: 11 (potential) branch divergence @  PC=0x1230 (_1.ptx:833) @%p9 bra $Lt_10_45058;
GPGPU-Sim PTX:    immediate post dominator      @  PC=0x1238 (_1.ptx:834) mov.f32 %f109, 0f00000000;   // 0
GPGPU-Sim PTX: 12 (potential) branch divergence @  PC=0x1280 (_1.ptx:843) @%p10 bra $Lt_10_48130;
GPGPU-Sim PTX:    immediate post dominator      @  PC=0x2140 (_1.ptx:1416) add.s32 %r23, %r23, 1;
GPGPU-Sim PTX: 13 (potential) branch divergence @  PC=0x1330 (_1.ptx:868) @%p11 bra $Lt_10_48898;
GPGPU-Sim PTX:    immediate post dominator      @  PC=0x13b8 (_1.ptx:888) sub.f32 %f136, %f21, %f119;
GPGPU-Sim PTX: 14 (potential) branch divergence @  PC=0x1350 (_1.ptx:873) bra.uni $Lt_10_48642;
GPGPU-Sim PTX:    immediate post dominator      @  PC=0x13b8 (_1.ptx:888) sub.f32 %f136, %f21, %f119;
GPGPU-Sim PTX: 15 (potential) branch divergence @  PC=0x1430 (_1.ptx:903) @!%p12 bra $Lt_10_49410;
GPGPU-Sim PTX:    immediate post dominator      @  PC=0x1470 (_1.ptx:915) mov.f32 %f153, 0f3d4ccccd;   // 0.05
GPGPU-Sim PTX: 16 (potential) branch divergence @  PC=0x1450 (_1.ptx:908) bra.uni $Lt_10_49154;
GPGPU-Sim PTX:    immediate post dominator      @  PC=0x1470 (_1.ptx:915) mov.f32 %f153, 0f3d4ccccd;   // 0.05
GPGPU-Sim PTX: 17 (potential) branch divergence @  PC=0x1578 (_1.ptx:949) @!%p13 bra $Lt_10_58114;
GPGPU-Sim PTX:    immediate post dominator      @  PC=0x2080 (_1.ptx:1388) add.f32 %f399, %f126, %f126;
GPGPU-Sim PTX: 18 (potential) branch divergence @  PC=0x15c0 (_1.ptx:961) @%p14 bra $Lt_10_49922;
GPGPU-Sim PTX:    immediate post dominator      @  PC=0x17b0 (_1.ptx:1039) mov.f32 %f221, 0f00000000;   // 0
GPGPU-Sim PTX: 19 (potential) branch divergence @  PC=0x15e0 (_1.ptx:966) @!%p15 bra $Lt_10_50434;
GPGPU-Sim PTX:    immediate post dominator      @  PC=0x1638 (_1.ptx:982) mov.f32 %f190, %f183;
GPGPU-Sim PTX: 20 (potential) branch divergence @  PC=0x15f0 (_1.ptx:968) bra.uni $Lt_10_50178;
GPGPU-Sim PTX:    immediate post dominator      @  PC=0x1638 (_1.ptx:982) mov.f32 %f190, %f183;
GPGPU-Sim PTX: 21 (potential) branch divergence @  PC=0x1640 (_1.ptx:983) bra.uni $Lt_10_49666;
GPGPU-Sim PTX:    immediate post dominator      @  PC=0x17b0 (_1.ptx:1039) mov.f32 %f221, 0f00000000;   // 0
GPGPU-Sim PTX: 22 (potential) branch divergence @  PC=0x1738 (_1.ptx:1016) @%p18 bra $Lt_10_50946;
GPGPU-Sim PTX:    immediate post dominator      @  PC=0x17a8 (_1.ptx:1036) mov.f32 %f190, %f214;
GPGPU-Sim PTX: 23 (potential) branch divergence @  PC=0x1748 (_1.ptx:1018) bra.uni $Lt_10_51202;
GPGPU-Sim PTX:    immediate post dominator      @  PC=0x17a8 (_1.ptx:1036) mov.f32 %f190, %f214;
GPGPU-Sim PTX: 24 (potential) branch divergence @  PC=0x1768 (_1.ptx:1023) @!%p19 bra $Lt_10_51458;
GPGPU-Sim PTX:    immediate post dominator      @  PC=0x17a8 (_1.ptx:1036) mov.f32 %f190, %f214;
GPGPU-Sim PTX: 25 (potential) branch divergence @  PC=0x1778 (_1.ptx:1025) bra.uni $Lt_10_51202;
GPGPU-Sim PTX:    immediate post dominator      @  PC=0x17a8 (_1.ptx:1036) mov.f32 %f190, %f214;
GPGPU-Sim PTX: 26 (potential) branch divergence @  PC=0x17c0 (_1.ptx:1041) @!%p20 bra $Lt_10_58370;
GPGPU-Sim PTX:    immediate post dominator      @  PC=0x1828 (_1.ptx:1057) add.s32 %r50, %r50, 1;
GPGPU-Sim PTX: 27 (potential) branch divergence @  PC=0x1818 (_1.ptx:1052) @!%p21 bra $Lt_10_58370;
GPGPU-Sim PTX:    immediate post dominator      @  PC=0x1828 (_1.ptx:1057) add.s32 %r50, %r50, 1;
GPGPU-Sim PTX: 28 (potential) branch divergence @  PC=0x1848 (_1.ptx:1061) @%p22 bra $Lt_10_58882;
GPGPU-Sim PTX:    immediate post dominator      @  PC=0x1880 (_1.ptx:1071) @!%p23 bra $Lt_10_58114;
GPGPU-Sim PTX: 29 (potential) branch divergence @  PC=0x1860 (_1.ptx:1064) @%p23 bra $L_10_42498;
GPGPU-Sim PTX:    immediate post dominator      @  PC=0x1880 (_1.ptx:1071) @!%p23 bra $Lt_10_58114;
GPGPU-Sim PTX: 30 (potential) branch divergence @  PC=0x1868 (_1.ptx:1065) bra.uni $L_10_43266;
GPGPU-Sim PTX:    immediate post dominator      @  PC=0x1880 (_1.ptx:1071) @!%p23 bra $Lt_10_58114;
GPGPU-Sim PTX: 31 (potential) branch divergence @  PC=0x1880 (_1.ptx:1071) @!%p23 bra $Lt_10_58114;
GPGPU-Sim PTX:    immediate post dominator      @  PC=0x2080 (_1.ptx:1388) add.f32 %f399, %f126, %f126;
GPGPU-Sim PTX: 32 (potential) branch divergence @  PC=0x19c8 (_1.ptx:1115) @!%p24 bra $Lt_10_51714;
GPGPU-Sim PTX:    immediate post dominator      @  PC=0x2040 (_1.ptx:1375) mov.f32 %f394, 0f3f4ccccd;   // 0.8
GPGPU-Sim PTX: 33 (potential) branch divergence @  PC=0x19d8 (_1.ptx:1118) bra.uni $LDWendi___isnanf_192_1;
GPGPU-Sim PTX:    immediate post dominator      @  PC=0x2040 (_1.ptx:1375) mov.f32 %f394, 0f3f4ccccd;   // 0.8
GPGPU-Sim PTX: 34 (potential) branch divergence @  PC=0x19f8 (_1.ptx:1124) @!%p25 bra $Lt_10_7682;
GPGPU-Sim PTX:    immediate post dominator      @  PC=0x2040 (_1.ptx:1375) mov.f32 %f394, 0f3f4ccccd;   // 0.8
GPGPU-Sim PTX: 35 (potential) branch divergence @  PC=0x1a00 (_1.ptx:1125) bra.uni $Lt_10_7938;
GPGPU-Sim PTX:    immediate post dominator      @  PC=0x1a20 (_1.ptx:1133) mov.f32 %f272, 0f7f800000;   // ((1.0F)/(0.0F))
GPGPU-Sim PTX: 36 (potential) branch divergence @  PC=0x1a18 (_1.ptx:1130) bra.uni $LDWendi___isnanf_192_1;
GPGPU-Sim PTX:    immediate post dominator      @  PC=0x2040 (_1.ptx:1375) mov.f32 %f394, 0f3f4ccccd;   // 0.8
GPGPU-Sim PTX: 37 (potential) branch divergence @  PC=0x1a30 (_1.ptx:1135) @!%p26 bra $Lt_10_52226;
GPGPU-Sim PTX:    immediate post dominator      @  PC=0x2040 (_1.ptx:1375) mov.f32 %f394, 0f3f4ccccd;   // 0.8
GPGPU-Sim PTX: 38 (potential) branch divergence @  PC=0x1a40 (_1.ptx:1138) bra.uni $LDWendi___isnanf_192_1;
GPGPU-Sim PTX:    immediate post dominator      @  PC=0x2040 (_1.ptx:1375) mov.f32 %f394, 0f3f4ccccd;   // 0.8
GPGPU-Sim PTX: 39 (potential) branch divergence @  PC=0x1a58 (_1.ptx:1142) @!%p27 bra $Lt_10_52738;
GPGPU-Sim PTX:    immediate post dominator      @  PC=0x2040 (_1.ptx:1375) mov.f32 %f394, 0f3f4ccccd;   // 0.8
GPGPU-Sim PTX: 40 (potential) branch divergence @  PC=0x1ab8 (_1.ptx:1155) bra.uni $LDWendi___isnanf_192_1;
GPGPU-Sim PTX:    immediate post dominator      @  PC=0x2040 (_1.ptx:1375) mov.f32 %f394, 0f3f4ccccd;   // 0.8
GPGPU-Sim PTX: 41 (potential) branch divergence @  PC=0x1ad0 (_1.ptx:1159) @!%p29 bra $Lt_10_53250;
GPGPU-Sim PTX:    immediate post dominator      @  PC=0x2040 (_1.ptx:1375) mov.f32 %f394, 0f3f4ccccd;   // 0.8
GPGPU-Sim PTX: 42 (potential) branch divergence @  PC=0x1b20 (_1.ptx:1170) @!%p30 bra $Lt_10_53762;
GPGPU-Sim PTX:    immediate post dominator      @  PC=0x1b40 (_1.ptx:1177) mov.f32 %f268, %f284;
GPGPU-Sim PTX: 43 (potential) branch divergence @  PC=0x1b48 (_1.ptx:1178) bra.uni $LDWendi___isnanf_192_1;
GPGPU-Sim PTX:    immediate post dominator      @  PC=0x2040 (_1.ptx:1375) mov.f32 %f394, 0f3f4ccccd;   // 0.8
GPGPU-Sim PTX: 44 (potential) branch divergence @  PC=0x1b60 (_1.ptx:1183) @!%p31 bra $Lt_10_59394;
GPGPU-Sim PTX:    immediate post dominator      @  PC=0x2040 (_1.ptx:1375) mov.f32 %f394, 0f3f4ccccd;   // 0.8
GPGPU-Sim PTX: 45 (potential) branch divergence @  PC=0x1b88 (_1.ptx:1188) @!%p32 bra $Lt_10_59394;
GPGPU-Sim PTX:    immediate post dominator      @  PC=0x2040 (_1.ptx:1375) mov.f32 %f394, 0f3f4ccccd;   // 0.8
GPGPU-Sim PTX: 46 (potential) branch divergence @  PC=0x1ba0 (_1.ptx:1192) bra.uni $LDWendi___isnanf_192_1;
GPGPU-Sim PTX:    immediate post dominator      @  PC=0x2040 (_1.ptx:1375) mov.f32 %f394, 0f3f4ccccd;   // 0.8
GPGPU-Sim PTX: 47 (potential) branch divergence @  PC=0x1bd8 (_1.ptx:1202) @%p33 bra $Lt_10_54530;
GPGPU-Sim PTX:    immediate post dominator      @  PC=0x1c20 (_1.ptx:1216) sub.s32 %r64, %r64, 127;
GPGPU-Sim PTX: 48 (potential) branch divergence @  PC=0x1c10 (_1.ptx:1211) bra.uni $Lt_10_54274;
GPGPU-Sim PTX:    immediate post dominator      @  PC=0x1c20 (_1.ptx:1216) sub.s32 %r64, %r64, 127;
GPGPU-Sim PTX: 49 (potential) branch divergence @  PC=0x1c58 (_1.ptx:1224) @!%p34 bra $Lt_10_54786;
GPGPU-Sim PTX:    immediate post dominator      @  PC=0x1c78 (_1.ptx:1232) mov.f32 %f302, 0fbf800000;   // -1
GPGPU-Sim PTX: 50 (potential) branch divergence @  PC=0x1eb0 (_1.ptx:1312) @%p35 bra $Lt_10_55298;
GPGPU-Sim PTX:    immediate post dominator      @  PC=0x1ed8 (_1.ptx:1321) mov.f32 %f367, %f365;
GPGPU-Sim PTX: 51 (potential) branch divergence @  PC=0x1f98 (_1.ptx:1346) @!%p38 bra $Lt_10_55810;
GPGPU-Sim PTX:    immediate post dominator      @  PC=0x1fa8 (_1.ptx:1351) mov.f32 %f284, %f386;
GPGPU-Sim PTX: 52 (potential) branch divergence @  PC=0x2018 (_1.ptx:1365) @%p39 bra $Lt_10_56322;
GPGPU-Sim PTX:    immediate post dominator      @  PC=0x2038 (_1.ptx:1372) mov.f32 %f268, %f284;
GPGPU-Sim PTX: 53 (potential) branch divergence @  PC=0x2158 (_1.ptx:1419) @%p40 bra $L_10_42242;
GPGPU-Sim PTX:    immediate post dominator      @  PC=0x2170 (_1.ptx:1424) sub.s32 %r86, %r24, 1;
GPGPU-Sim PTX: 54 (potential) branch divergence @  PC=0x2168 (_1.ptx:1421) @%p41 bra $L_10_41474;
GPGPU-Sim PTX:    immediate post dominator      @  PC=0x2170 (_1.ptx:1424) sub.s32 %r86, %r24, 1;
GPGPU-Sim PTX: 55 (potential) branch divergence @  PC=0x2190 (_1.ptx:1428) @%p42 bra $Lt_10_56834;
GPGPU-Sim PTX:    immediate post dominator      @  PC=0x2288 (_1.ptx:1464) ld.global.u32 %r92, [%rd4+0];
GPGPU-Sim PTX: 56 (potential) branch divergence @  PC=0x2280 (_1.ptx:1461) @%p43 bra $Lt_10_57346;
GPGPU-Sim PTX:    immediate post dominator      @  PC=0x2288 (_1.ptx:1464) ld.global.u32 %r92, [%rd4+0];
GPGPU-Sim PTX: ... end of reconvergence points for _Z6renderPjP4Nodejjff
GPGPU-Sim PTX: ... done pre-decoding instructions for '_Z6renderPjP4Nodejjff'.
GPGPU-Sim PTX: instruction assembly for function '_ZN4dim3C1Ejjj'...   done.
GPGPU-Sim PTX: finding reconvergence points for '_ZN4dim3C1Ejjj'...
GPGPU-Sim PTX: Finding dominators for '_ZN4dim3C1Ejjj'...
GPGPU-Sim PTX: Finding immediate dominators for '_ZN4dim3C1Ejjj'...
GPGPU-Sim PTX: Finding postdominators for '_ZN4dim3C1Ejjj'...
GPGPU-Sim PTX: Finding immediate postdominators for '_ZN4dim3C1Ejjj'...
GPGPU-Sim PTX: pre-decoding instructions for '_ZN4dim3C1Ejjj'...
GPGPU-Sim PTX: reconvergence points for _ZN4dim3C1Ejjj...
GPGPU-Sim PTX: ... end of reconvergence points for _ZN4dim3C1Ejjj
GPGPU-Sim PTX: ... done pre-decoding instructions for '_ZN4dim3C1Ejjj'.
GPGPU-Sim PTX: finished parsing EMBEDDED .ptx file _1.ptx
Adding _cuobjdump_1.ptx with cubin handle 1
GPGPU-Sim PTX: extracting embedded .ptx to temporary file "_ptx_O9yhD4"
Running: cat _ptx_O9yhD4 | sed 's/.version 1.5/.version 1.4/' | sed 's/, texmode_independent//' | sed 's/\(\.extern \.const\[1\] .b8 \w\+\)\[\]/\1\[1\]/' | sed 's/const\[.\]/const\[0\]/g' > _ptx2_HssdG3
GPGPU-Sim PTX: generating ptxinfo using "$CUDA_INSTALL_PATH/bin/ptxas --gpu-name=sm_20 -v _ptx2_HssdG3 --output-file  /dev/null 2> _ptx_O9yhD4info"
GPGPU-Sim PTX: Kernel '_Z6renderPjP4Nodejjff' : regs=45, lmem=4, smem=0, cmem=180
GPGPU-Sim PTX: removing ptxinfo using "rm -f _ptx_O9yhD4 _ptx2_HssdG3 _ptx_O9yhD4info"
GPGPU-Sim PTX: loading globals with explicit initializers... 
GPGPU-Sim PTX: finished loading globals (0 bytes total).
GPGPU-Sim PTX: loading constants with explicit initializers...  done.
GPGPU-Sim PTX: __cudaRegisterVar: hostVar = 0x62fda0; deviceAddress = MView; deviceName = MView
GPGPU-Sim PTX: __cudaRegisterVar: Registering const memory space of 48 bytes
GPGPU-Sim PTX registering constant MView (48 bytes) to name mapping
GPGPU-Sim PTX: __cudaRegisterVar: hostVar = 0x62fde0; deviceAddress = cnode; deviceName = cnode
GPGPU-Sim PTX: __cudaRegisterVar: Registering const memory space of 160 bytes
GPGPU-Sim PTX registering constant cnode (160 bytes) to name mapping
GPGPU-Sim PTX: cudaMemcpyToSymbol: symbol = 0x62fde0
GPGPU-Sim PTX: starting gpgpu_ptx_sim_memcpy_symbol with hostVar 0x0x62fde0
GPGPU-Sim PTX: gpgpu_ptx_sim_memcpy_symbol: Found PTX symbol w/ hostVar=0x62fde0
GPGPU-Sim PTX: gpgpu_ptx_sim_memcpy_symbol: copying const memory 160 bytes  to  symbol cnode+0 @0x100 ...
GPGPU-Sim PTX: cudaMemcpyToSymbol: symbol = 0x62fda0
GPGPU-Sim PTX: starting gpgpu_ptx_sim_memcpy_symbol with hostVar 0x0x62fda0
GPGPU-Sim PTX: gpgpu_ptx_sim_memcpy_symbol: Found PTX symbol w/ hostVar=0x62fda0
GPGPU-Sim PTX: gpgpu_ptx_sim_memcpy_symbol: copying const memory 48 bytes  to  symbol MView+0 @0x200 ...

GPGPU-Sim PTX: cudaLaunch for 0x0x40ce13 (mode=performance simulation) on stream 0
GPGPU-Sim PTX: pushing kernel '_Z6renderPjP4Nodejjff' to stream 0, gridDim= (16,32,1) blockDim = (16,8,1) 
kernel '_Z6renderPjP4Nodejjff' transfer to GPU hardware scheduler
GPGPU-Sim uArch: Shader 1 bind to kernel 1 '_Z6renderPjP4Nodejjff'
GPGPU-Sim uArch: CTA/core = 5, limited by: regs
GPGPU-Sim uArch: core:  1, cta: 0 initialized @(1,0)
GPGPU-Sim uArch: Shader 2 bind to kernel 1 '_Z6renderPjP4Nodejjff'
GPGPU-Sim uArch: core:  2, cta: 0 initialized @(1,0)
GPGPU-Sim uArch: Shader 3 bind to kernel 1 '_Z6renderPjP4Nodejjff'
GPGPU-Sim uArch: core:  3, cta: 0 initialized @(1,0)
GPGPU-Sim uArch: Shader 4 bind to kernel 1 '_Z6renderPjP4Nodejjff'
GPGPU-Sim uArch: core:  4, cta: 0 initialized @(1,0)
GPGPU-Sim uArch: Shader 5 bind to kernel 1 '_Z6renderPjP4Nodejjff'
GPGPU-Sim uArch: core:  5, cta: 0 initialized @(1,0)
GPGPU-Sim uArch: Shader 6 bind to kernel 1 '_Z6renderPjP4Nodejjff'
GPGPU-Sim uArch: core:  6, cta: 0 initialized @(1,0)
GPGPU-Sim uArch: Shader 7 bind to kernel 1 '_Z6renderPjP4Nodejjff'
GPGPU-Sim uArch: core:  7, cta: 0 initialized @(1,0)
GPGPU-Sim uArch: Shader 8 bind to kernel 1 '_Z6renderPjP4Nodejjff'
GPGPU-Sim uArch: core:  8, cta: 0 initialized @(1,0)
GPGPU-Sim uArch: Shader 9 bind to kernel 1 '_Z6renderPjP4Nodejjff'
GPGPU-Sim uArch: core:  9, cta: 0 initialized @(1,0)
GPGPU-Sim uArch: Shader 10 bind to kernel 1 '_Z6renderPjP4Nodejjff'
GPGPU-Sim uArch: core: 10, cta: 0 initialized @(1,0)
GPGPU-Sim uArch: Shader 11 bind to kernel 1 '_Z6renderPjP4Nodejjff'
GPGPU-Sim uArch: core: 11, cta: 0 initialized @(1,0)
GPGPU-Sim uArch: Shader 12 bind to kernel 1 '_Z6renderPjP4Nodejjff'
GPGPU-Sim uArch: core: 12, cta: 0 initialized @(1,0)
GPGPU-Sim uArch: Shader 13 bind to kernel 1 '_Z6renderPjP4Nodejjff'
GPGPU-Sim uArch: core: 13, cta: 0 initialized @(1,0)
GPGPU-Sim uArch: Shader 14 bind to kernel 1 '_Z6renderPjP4Nodejjff'
GPGPU-Sim uArch: core: 14, cta: 0 initialized @(1,0)
GPGPU-Sim uArch: Shader 0 bind to kernel 1 '_Z6renderPjP4Nodejjff'
GPGPU-Sim uArch: core:  0, cta: 0 initialized @(1,0)
GPGPU-Sim uArch: core:  1, cta: 1 initialized @(2,0)
GPGPU-Sim uArch: core:  2, cta: 1 initialized @(2,0)
GPGPU-Sim uArch: core:  3, cta: 1 initialized @(2,0)
GPGPU-Sim uArch: core:  4, cta: 1 initialized @(2,0)
GPGPU-Sim uArch: core:  5, cta: 1 initialized @(2,0)
GPGPU-Sim uArch: core:  6, cta: 1 initialized @(2,0)
GPGPU-Sim uArch: core:  7, cta: 1 initialized @(2,0)
GPGPU-Sim uArch: core:  8, cta: 1 initialized @(2,0)
GPGPU-Sim uArch: core:  9, cta: 1 initialized @(2,0)
GPGPU-Sim uArch: core: 10, cta: 1 initialized @(2,0)
GPGPU-Sim uArch: core: 11, cta: 1 initialized @(2,0)
GPGPU-Sim uArch: core: 12, cta: 1 initialized @(2,0)
GPGPU-Sim uArch: core: 13, cta: 1 initialized @(2,0)
GPGPU-Sim uArch: core: 14, cta: 1 initialized @(2,0)
GPGPU-Sim uArch: core:  0, cta: 1 initialized @(2,0)
GPGPU-Sim uArch: core:  1, cta: 2 initialized @(3,0)
GPGPU-Sim uArch: core:  2, cta: 2 initialized @(3,0)
GPGPU-Sim uArch: core:  3, cta: 2 initialized @(3,0)
GPGPU-Sim uArch: core:  4, cta: 2 initialized @(3,0)
GPGPU-Sim uArch: core:  5, cta: 2 initialized @(3,0)
GPGPU-Sim uArch: core:  6, cta: 2 initialized @(3,0)
GPGPU-Sim uArch: core:  7, cta: 2 initialized @(3,0)
GPGPU-Sim uArch: core:  8, cta: 2 initialized @(3,0)
GPGPU-Sim uArch: core:  9, cta: 2 initialized @(3,0)
GPGPU-Sim uArch: core: 10, cta: 2 initialized @(3,0)
GPGPU-Sim uArch: core: 11, cta: 2 initialized @(3,0)
GPGPU-Sim uArch: core: 12, cta: 2 initialized @(3,0)
GPGPU-Sim uArch: core: 13, cta: 2 initialized @(3,0)
GPGPU-Sim uArch: core: 14, cta: 2 initialized @(3,0)
GPGPU-Sim uArch: core:  0, cta: 2 initialized @(3,0)
GPGPU-Sim uArch: core:  1, cta: 3 initialized @(4,0)
GPGPU-Sim uArch: core:  2, cta: 3 initialized @(4,0)
GPGPU-Sim uArch: core:  3, cta: 3 initialized @(4,0)
GPGPU-Sim uArch: core:  4, cta: 3 initialized @(4,0)
GPGPU-Sim uArch: core:  5, cta: 3 initialized @(4,0)
GPGPU-Sim uArch: core:  6, cta: 3 initialized @(4,0)
GPGPU-Sim uArch: core:  7, cta: 3 initialized @(4,0)
GPGPU-Sim uArch: core:  8, cta: 3 initialized @(4,0)
GPGPU-Sim uArch: core:  9, cta: 3 initialized @(4,0)
GPGPU-Sim uArch: core: 10, cta: 3 initialized @(4,0)
GPGPU-Sim uArch: core: 11, cta: 3 initialized @(4,0)
GPGPU-Sim uArch: core: 12, cta: 3 initialized @(4,0)
GPGPU-Sim uArch: core: 13, cta: 3 initialized @(4,0)
GPGPU-Sim uArch: core: 14, cta: 3 initialized @(4,0)
GPGPU-Sim uArch: core:  0, cta: 3 initialized @(4,0)
GPGPU-Sim uArch: core:  1, cta: 4 initialized @(5,0)
GPGPU-Sim uArch: core:  2, cta: 4 initialized @(5,0)
GPGPU-Sim uArch: core:  3, cta: 4 initialized @(5,0)
GPGPU-Sim uArch: core:  4, cta: 4 initialized @(5,0)
GPGPU-Sim uArch: core:  5, cta: 4 initialized @(5,0)
GPGPU-Sim uArch: core:  6, cta: 4 initialized @(5,0)
GPGPU-Sim uArch: core:  7, cta: 4 initialized @(5,0)
GPGPU-Sim uArch: core:  8, cta: 4 initialized @(5,0)
GPGPU-Sim uArch: core:  9, cta: 4 initialized @(5,0)
GPGPU-Sim uArch: core: 10, cta: 4 initialized @(5,0)
GPGPU-Sim uArch: core: 11, cta: 4 initialized @(5,0)
GPGPU-Sim uArch: core: 12, cta: 4 initialized @(5,0)
GPGPU-Sim uArch: core: 13, cta: 4 initialized @(5,0)
GPGPU-Sim uArch: core: 14, cta: 4 initialized @(5,0)
GPGPU-Sim uArch: core:  0, cta: 4 initialized @(5,0)
GPGPU-Sim uArch: cycles simulated: 500  inst.: 32096 (ipc=64.2) sim_rate=32096 (inst/sec) elapsed = 0:0:00:01 / Sun Feb 28 21:39:50 2016
GPGPU-Sim uArch: cycles simulated: 2000  inst.: 56896 (ipc=28.4) sim_rate=28448 (inst/sec) elapsed = 0:0:00:02 / Sun Feb 28 21:39:51 2016
GPGPU-Sim PTX: 100000 instructions simulated : ctaid=(2,2,0) tid=(15,5,0)
GPGPU-Sim uArch: cycles simulated: 5000  inst.: 148704 (ipc=29.7) sim_rate=49568 (inst/sec) elapsed = 0:0:00:03 / Sun Feb 28 21:39:52 2016
GPGPU-Sim PTX: 200000 instructions simulated : ctaid=(3,1,0) tid=(15,1,0)
GPGPU-Sim uArch: cycles simulated: 7500  inst.: 267488 (ipc=35.7) sim_rate=66872 (inst/sec) elapsed = 0:0:00:04 / Sun Feb 28 21:39:53 2016
GPGPU-Sim PTX: 300000 instructions simulated : ctaid=(12,0,0) tid=(15,3,0)
GPGPU-Sim PTX: 400000 instructions simulated : ctaid=(4,0,0) tid=(15,1,0)
GPGPU-Sim uArch: cycles simulated: 10000  inst.: 469856 (ipc=47.0) sim_rate=93971 (inst/sec) elapsed = 0:0:00:05 / Sun Feb 28 21:39:54 2016
GPGPU-Sim PTX: 500000 instructions simulated : ctaid=(0,4,0) tid=(15,1,0)
GPGPU-Sim PTX: 600000 instructions simulated : ctaid=(2,0,0) tid=(15,7,0)
GPGPU-Sim uArch: cycles simulated: 12000  inst.: 629280 (ipc=52.4) sim_rate=104880 (inst/sec) elapsed = 0:0:00:06 / Sun Feb 28 21:39:55 2016
GPGPU-Sim PTX: 700000 instructions simulated : ctaid=(13,0,0) tid=(15,5,0)
GPGPU-Sim PTX: 800000 instructions simulated : ctaid=(6,1,0) tid=(15,3,0)
GPGPU-Sim PTX: 900000 instructions simulated : ctaid=(5,0,0) tid=(15,7,0)
GPGPU-Sim uArch: cycles simulated: 14500  inst.: 925760 (ipc=63.8) sim_rate=132251 (inst/sec) elapsed = 0:0:00:07 / Sun Feb 28 21:39:56 2016
GPGPU-Sim PTX: 1000000 instructions simulated : ctaid=(7,1,0) tid=(15,3,0)
GPGPU-Sim PTX: 1100000 instructions simulated : ctaid=(4,0,0) tid=(15,7,0)
GPGPU-Sim PTX: 1200000 instructions simulated : ctaid=(1,0,0) tid=(15,1,0)
GPGPU-Sim PTX: 1300000 instructions simulated : ctaid=(12,2,0) tid=(15,1,0)
GPGPU-Sim uArch: cycles simulated: 16000  inst.: 1313248 (ipc=82.1) sim_rate=164156 (inst/sec) elapsed = 0:0:00:08 / Sun Feb 28 21:39:57 2016
GPGPU-Sim PTX: 1400000 instructions simulated : ctaid=(5,1,0) tid=(15,1,0)
GPGPU-Sim PTX: 1500000 instructions simulated : ctaid=(5,2,0) tid=(15,3,0)
GPGPU-Sim PTX: 1600000 instructions simulated : ctaid=(3,2,0) tid=(15,3,0)
GPGPU-Sim PTX: 1700000 instructions simulated : ctaid=(6,0,0) tid=(15,7,0)
GPGPU-Sim PTX: 1800000 instructions simulated : ctaid=(4,3,0) tid=(15,3,0)
GPGPU-Sim PTX: 1900000 instructions simulated : ctaid=(2,2,0) tid=(15,7,0)
GPGPU-Sim uArch: cycles simulated: 17500  inst.: 1886912 (ipc=107.8) sim_rate=209656 (inst/sec) elapsed = 0:0:00:09 / Sun Feb 28 21:39:58 2016
GPGPU-Sim PTX: 2000000 instructions simulated : ctaid=(12,1,0) tid=(15,3,0)
GPGPU-Sim PTX: 2100000 instructions simulated : ctaid=(2,0,0) tid=(15,5,0)
GPGPU-Sim PTX: 2200000 instructions simulated : ctaid=(10,2,0) tid=(15,7,0)
GPGPU-Sim PTX: 2300000 instructions simulated : ctaid=(5,0,0) tid=(15,1,0)
GPGPU-Sim PTX: 2400000 instructions simulated : ctaid=(11,1,0) tid=(15,1,0)
GPGPU-Sim PTX: 2500000 instructions simulated : ctaid=(14,1,0) tid=(15,3,0)
GPGPU-Sim uArch: cycles simulated: 18500  inst.: 2477856 (ipc=133.9) sim_rate=247785 (inst/sec) elapsed = 0:0:00:10 / Sun Feb 28 21:39:59 2016
GPGPU-Sim PTX: 2600000 instructions simulated : ctaid=(15,1,0) tid=(15,1,0)
GPGPU-Sim PTX: 2700000 instructions simulated : ctaid=(1,3,0) tid=(15,7,0)
GPGPU-Sim PTX: 2800000 instructions simulated : ctaid=(9,0,0) tid=(15,7,0)
GPGPU-Sim PTX: 2900000 instructions simulated : ctaid=(5,3,0) tid=(15,1,0)
GPGPU-Sim PTX: 3000000 instructions simulated : ctaid=(3,4,0) tid=(15,1,0)
GPGPU-Sim PTX: 3100000 instructions simulated : ctaid=(14,3,0) tid=(15,7,0)
GPGPU-Sim uArch: cycles simulated: 19500  inst.: 3119712 (ipc=160.0) sim_rate=283610 (inst/sec) elapsed = 0:0:00:11 / Sun Feb 28 21:40:00 2016
GPGPU-Sim PTX: 3200000 instructions simulated : ctaid=(7,0,0) tid=(15,1,0)
GPGPU-Sim PTX: 3300000 instructions simulated : ctaid=(13,2,0) tid=(15,5,0)
GPGPU-Sim PTX: 3400000 instructions simulated : ctaid=(14,0,0) tid=(15,3,0)
GPGPU-Sim uArch: cycles simulated: 20500  inst.: 3357056 (ipc=163.8) sim_rate=279754 (inst/sec) elapsed = 0:0:00:12 / Sun Feb 28 21:40:01 2016
GPGPU-Sim PTX: 3500000 instructions simulated : ctaid=(13,0,0) tid=(15,3,0)
GPGPU-Sim PTX: 3600000 instructions simulated : ctaid=(12,0,0) tid=(15,3,0)
GPGPU-Sim PTX: 3700000 instructions simulated : ctaid=(0,2,0) tid=(15,7,0)
GPGPU-Sim PTX: 3800000 instructions simulated : ctaid=(12,3,0) tid=(15,1,0)
GPGPU-Sim PTX: 3900000 instructions simulated : ctaid=(2,3,0) tid=(15,5,0)
GPGPU-Sim PTX: 4000000 instructions simulated : ctaid=(5,4,0) tid=(15,1,0)
GPGPU-Sim uArch: cycles simulated: 22500  inst.: 3920896 (ipc=174.3) sim_rate=301607 (inst/sec) elapsed = 0:0:00:13 / Sun Feb 28 21:40:02 2016
GPGPU-Sim PTX: 4100000 instructions simulated : ctaid=(5,0,0) tid=(15,5,0)
GPGPU-Sim PTX: 4200000 instructions simulated : ctaid=(8,2,0) tid=(15,7,0)
GPGPU-Sim PTX: 4300000 instructions simulated : ctaid=(15,2,0) tid=(15,3,0)
GPGPU-Sim PTX: 4400000 instructions simulated : ctaid=(4,3,0) tid=(15,3,0)
GPGPU-Sim uArch: cycles simulated: 23500  inst.: 4353216 (ipc=185.2) sim_rate=310944 (inst/sec) elapsed = 0:0:00:14 / Sun Feb 28 21:40:03 2016
GPGPU-Sim PTX: 4500000 instructions simulated : ctaid=(12,0,0) tid=(15,5,0)
GPGPU-Sim PTX: 4600000 instructions simulated : ctaid=(2,0,0) tid=(4,2,0)
GPGPU-Sim PTX: 4700000 instructions simulated : ctaid=(9,0,0) tid=(13,3,0)
GPGPU-Sim PTX: 4800000 instructions simulated : ctaid=(3,4,0) tid=(15,2,0)
GPGPU-Sim PTX: 4900000 instructions simulated : ctaid=(12,2,0) tid=(15,6,0)
GPGPU-Sim PTX: 5000000 instructions simulated : ctaid=(12,0,0) tid=(15,2,0)
GPGPU-Sim PTX: 5100000 instructions simulated : ctaid=(12,2,0) tid=(15,2,0)
GPGPU-Sim uArch: cycles simulated: 24500  inst.: 4976720 (ipc=203.1) sim_rate=331781 (inst/sec) elapsed = 0:0:00:15 / Sun Feb 28 21:40:04 2016
GPGPU-Sim PTX: 5200000 instructions simulated : ctaid=(11,3,0) tid=(15,6,0)
GPGPU-Sim PTX: 5300000 instructions simulated : ctaid=(14,1,0) tid=(15,2,0)
GPGPU-Sim PTX: 5400000 instructions simulated : ctaid=(11,3,0) tid=(12,0,0)
GPGPU-Sim PTX: 5500000 instructions simulated : ctaid=(7,3,0) tid=(13,3,0)
GPGPU-Sim PTX: 5600000 instructions simulated : ctaid=(4,3,0) tid=(5,1,0)
GPGPU-Sim PTX: 5700000 instructions simulated : ctaid=(4,2,0) tid=(1,0,0)
GPGPU-Sim PTX: 5800000 instructions simulated : ctaid=(14,3,0) tid=(7,5,0)
GPGPU-Sim uArch: cycles simulated: 25500  inst.: 5690404 (ipc=223.2) sim_rate=355650 (inst/sec) elapsed = 0:0:00:16 / Sun Feb 28 21:40:05 2016
GPGPU-Sim PTX: 5900000 instructions simulated : ctaid=(0,1,0) tid=(2,4,0)
GPGPU-Sim PTX: 6000000 instructions simulated : ctaid=(8,0,0) tid=(11,3,0)
GPGPU-Sim PTX: 6100000 instructions simulated : ctaid=(9,3,0) tid=(11,3,0)
GPGPU-Sim PTX: 6200000 instructions simulated : ctaid=(5,3,0) tid=(11,1,0)
GPGPU-Sim PTX: 6300000 instructions simulated : ctaid=(3,1,0) tid=(11,3,0)
GPGPU-Sim uArch: cycles simulated: 27000  inst.: 6132900 (ipc=227.1) sim_rate=360758 (inst/sec) elapsed = 0:0:00:17 / Sun Feb 28 21:40:06 2016
GPGPU-Sim PTX: 6400000 instructions simulated : ctaid=(5,0,0) tid=(11,1,0)
GPGPU-Sim PTX: 6500000 instructions simulated : ctaid=(15,0,0) tid=(4,7,0)
GPGPU-Sim PTX: 6600000 instructions simulated : ctaid=(10,2,0) tid=(11,1,0)
GPGPU-Sim PTX: 6700000 instructions simulated : ctaid=(0,2,0) tid=(11,5,0)
GPGPU-Sim PTX: 6800000 instructions simulated : ctaid=(7,2,0) tid=(11,3,0)
GPGPU-Sim PTX: 6900000 instructions simulated : ctaid=(3,0,0) tid=(11,7,0)
GPGPU-Sim uArch: cycles simulated: 29000  inst.: 6780100 (ipc=233.8) sim_rate=376672 (inst/sec) elapsed = 0:0:00:18 / Sun Feb 28 21:40:07 2016
GPGPU-Sim PTX: 7000000 instructions simulated : ctaid=(12,1,0) tid=(11,1,0)
GPGPU-Sim PTX: 7100000 instructions simulated : ctaid=(3,1,0) tid=(11,7,0)
GPGPU-Sim uArch: cycles simulated: 29500  inst.: 6964260 (ipc=236.1) sim_rate=366540 (inst/sec) elapsed = 0:0:00:19 / Sun Feb 28 21:40:08 2016
GPGPU-Sim PTX: 7200000 instructions simulated : ctaid=(9,3,0) tid=(11,3,0)
GPGPU-Sim PTX: 7300000 instructions simulated : ctaid=(10,1,0) tid=(11,1,0)
GPGPU-Sim PTX: 7400000 instructions simulated : ctaid=(5,2,0) tid=(11,3,0)
GPGPU-Sim PTX: 7500000 instructions simulated : ctaid=(4,4,0) tid=(11,5,0)
GPGPU-Sim PTX: 7600000 instructions simulated : ctaid=(9,3,0) tid=(11,7,0)
GPGPU-Sim PTX: 7700000 instructions simulated : ctaid=(4,4,0) tid=(11,1,0)
GPGPU-Sim PTX: 7800000 instructions simulated : ctaid=(14,2,0) tid=(11,3,0)
GPGPU-Sim uArch: cycles simulated: 31500  inst.: 7606180 (ipc=241.5) sim_rate=380309 (inst/sec) elapsed = 0:0:00:20 / Sun Feb 28 21:40:09 2016
GPGPU-Sim PTX: 7900000 instructions simulated : ctaid=(2,0,0) tid=(11,1,0)
GPGPU-Sim PTX: 8000000 instructions simulated : ctaid=(3,1,0) tid=(11,1,0)
GPGPU-Sim PTX: 8100000 instructions simulated : ctaid=(11,2,0) tid=(11,7,0)
GPGPU-Sim uArch: cycles simulated: 32500  inst.: 7979236 (ipc=245.5) sim_rate=379963 (inst/sec) elapsed = 0:0:00:21 / Sun Feb 28 21:40:10 2016
GPGPU-Sim PTX: 8200000 instructions simulated : ctaid=(14,0,0) tid=(11,5,0)
GPGPU-Sim PTX: 8300000 instructions simulated : ctaid=(10,4,0) tid=(11,5,0)
GPGPU-Sim PTX: 8400000 instructions simulated : ctaid=(5,0,0) tid=(11,1,0)
GPGPU-Sim PTX: 8500000 instructions simulated : ctaid=(10,3,0) tid=(11,1,0)
GPGPU-Sim PTX: 8600000 instructions simulated : ctaid=(11,2,0) tid=(11,5,0)
GPGPU-Sim PTX: 8700000 instructions simulated : ctaid=(10,0,0) tid=(5,2,0)
GPGPU-Sim PTX: 8800000 instructions simulated : ctaid=(9,3,0) tid=(1,7,0)
GPGPU-Sim PTX: 8900000 instructions simulated : ctaid=(5,0,0) tid=(11,1,0)
GPGPU-Sim PTX: 9000000 instructions simulated : ctaid=(4,0,0) tid=(0,5,0)
GPGPU-Sim PTX: 9100000 instructions simulated : ctaid=(4,2,0) tid=(15,1,0)
GPGPU-Sim PTX: 9200000 instructions simulated : ctaid=(14,3,0) tid=(3,2,0)
GPGPU-Sim uArch: cycles simulated: 34000  inst.: 9003508 (ipc=264.8) sim_rate=409250 (inst/sec) elapsed = 0:0:00:22 / Sun Feb 28 21:40:11 2016
GPGPU-Sim PTX: 9300000 instructions simulated : ctaid=(9,1,0) tid=(5,2,0)
GPGPU-Sim PTX: 9400000 instructions simulated : ctaid=(0,2,0) tid=(9,7,0)
GPGPU-Sim PTX: 9500000 instructions simulated : ctaid=(14,1,0) tid=(12,1,0)
GPGPU-Sim PTX: 9600000 instructions simulated : ctaid=(10,0,0) tid=(5,3,0)
GPGPU-Sim uArch: cycles simulated: 34500  inst.: 9403065 (ipc=272.6) sim_rate=408828 (inst/sec) elapsed = 0:0:00:23 / Sun Feb 28 21:40:12 2016
GPGPU-Sim PTX: 9700000 instructions simulated : ctaid=(7,1,0) tid=(11,1,0)
GPGPU-Sim PTX: 9800000 instructions simulated : ctaid=(10,1,0) tid=(10,6,0)
GPGPU-Sim PTX: 9900000 instructions simulated : ctaid=(4,0,0) tid=(8,0,0)
GPGPU-Sim PTX: 10000000 instructions simulated : ctaid=(5,1,0) tid=(1,4,0)
GPGPU-Sim PTX: 10100000 instructions simulated : ctaid=(2,1,0) tid=(14,0,0)
GPGPU-Sim uArch: cycles simulated: 36000  inst.: 9924436 (ipc=275.7) sim_rate=413518 (inst/sec) elapsed = 0:0:00:24 / Sun Feb 28 21:40:13 2016
GPGPU-Sim PTX: 10200000 instructions simulated : ctaid=(2,4,0) tid=(6,1,0)
GPGPU-Sim PTX: 10300000 instructions simulated : ctaid=(11,0,0) tid=(13,7,0)
GPGPU-Sim PTX: 10400000 instructions simulated : ctaid=(15,1,0) tid=(9,1,0)
GPGPU-Sim uArch: Shader 0 finished CTA #0 (37205,0), 4 CTAs running
GPGPU-Sim uArch: core:  0, cta: 0 initialized @(37206,0)
GPGPU-Sim uArch: Shader 0 finished CTA #1 (37221,0), 4 CTAs running
GPGPU-Sim uArch: core:  0, cta: 1 initialized @(37222,0)
GPGPU-Sim uArch: Shader 9 finished CTA #3 (37301,0), 4 CTAs running
GPGPU-Sim uArch: core:  9, cta: 3 initialized @(37302,0)
GPGPU-Sim uArch: Shader 9 finished CTA #4 (37310,0), 4 CTAs running
GPGPU-Sim uArch: core:  9, cta: 4 initialized @(37311,0)
GPGPU-Sim PTX: 10500000 instructions simulated : ctaid=(4,2,0) tid=(3,0,0)
GPGPU-Sim uArch: Shader 0 finished CTA #2 (37373,0), 4 CTAs running
GPGPU-Sim uArch: core:  0, cta: 2 initialized @(37374,0)
GPGPU-Sim uArch: Shader 0 finished CTA #3 (37390,0), 4 CTAs running
GPGPU-Sim uArch: core:  0, cta: 3 initialized @(37391,0)
GPGPU-Sim uArch: Shader 8 finished CTA #2 (37408,0), 4 CTAs running
GPGPU-Sim uArch: core:  8, cta: 2 initialized @(37409,0)
GPGPU-Sim uArch: Shader 8 finished CTA #3 (37434,0), 4 CTAs running
GPGPU-Sim uArch: core:  8, cta: 3 initialized @(37435,0)
GPGPU-Sim uArch: Shader 0 finished CTA #4 (37436,0), 4 CTAs running
GPGPU-Sim uArch: core:  0, cta: 4 initialized @(37437,0)
GPGPU-Sim uArch: Shader 4 finished CTA #1 (37472,0), 4 CTAs running
GPGPU-Sim uArch: core:  4, cta: 1 initialized @(37473,0)
GPGPU-Sim uArch: Shader 14 finished CTA #0 (37499,0), 4 CTAs running
GPGPU-Sim uArch: core: 14, cta: 0 initialized @(37500,0)
GPGPU-Sim uArch: cycles simulated: 37500  inst.: 10261727 (ipc=273.6) sim_rate=410469 (inst/sec) elapsed = 0:0:00:25 / Sun Feb 28 21:40:14 2016
GPGPU-Sim uArch: Shader 5 finished CTA #2 (37506,0), 4 CTAs running
GPGPU-Sim uArch: core:  5, cta: 2 initialized @(37507,0)
GPGPU-Sim uArch: Shader 2 finished CTA #0 (37514,0), 4 CTAs running
GPGPU-Sim uArch: core:  2, cta: 0 initialized @(37515,0)
GPGPU-Sim uArch: Shader 3 finished CTA #0 (37536,0), 4 CTAs running
GPGPU-Sim uArch: core:  3, cta: 0 initialized @(37537,0)
GPGPU-Sim uArch: Shader 2 finished CTA #1 (37542,0), 4 CTAs running
GPGPU-Sim uArch: core:  2, cta: 1 initialized @(37543,0)
GPGPU-Sim uArch: Shader 2 finished CTA #2 (37568,0), 4 CTAs running
GPGPU-Sim uArch: Shader 6 finished CTA #2 (37568,0), 4 CTAs running
GPGPU-Sim uArch: core:  6, cta: 2 initialized @(37569,0)
GPGPU-Sim uArch: core:  2, cta: 2 initialized @(37569,0)
GPGPU-Sim uArch: Shader 1 finished CTA #0 (37576,0), 4 CTAs running
GPGPU-Sim uArch: core:  1, cta: 0 initialized @(37577,0)
GPGPU-Sim uArch: Shader 3 finished CTA #1 (37582,0), 4 CTAs running
GPGPU-Sim uArch: core:  3, cta: 1 initialized @(37583,0)
GPGPU-Sim uArch: Shader 5 finished CTA #3 (37585,0), 4 CTAs running
GPGPU-Sim uArch: core:  5, cta: 3 initialized @(37586,0)
GPGPU-Sim uArch: Shader 5 finished CTA #4 (37591,0), 4 CTAs running
GPGPU-Sim uArch: Shader 6 finished CTA #3 (37591,0), 4 CTAs running
GPGPU-Sim uArch: core:  6, cta: 3 initialized @(37592,0)
GPGPU-Sim uArch: core:  5, cta: 4 initialized @(37592,0)
GPGPU-Sim uArch: Shader 3 finished CTA #2 (37598,0), 4 CTAs running
GPGPU-Sim uArch: core:  3, cta: 2 initialized @(37599,0)
GPGPU-Sim uArch: Shader 2 finished CTA #3 (37600,0), 4 CTAs running
GPGPU-Sim uArch: core:  2, cta: 3 initialized @(37601,0)
GPGPU-Sim uArch: Shader 6 finished CTA #4 (37605,0), 4 CTAs running
GPGPU-Sim uArch: core:  6, cta: 4 initialized @(37606,0)
GPGPU-Sim uArch: Shader 4 finished CTA #2 (37610,0), 4 CTAs running
GPGPU-Sim uArch: core:  4, cta: 2 initialized @(37611,0)
GPGPU-Sim uArch: Shader 8 finished CTA #4 (37622,0), 4 CTAs running
GPGPU-Sim uArch: core:  8, cta: 4 initialized @(37623,0)
GPGPU-Sim uArch: Shader 1 finished CTA #1 (37630,0), 4 CTAs running
GPGPU-Sim uArch: core:  1, cta: 1 initialized @(37631,0)
GPGPU-Sim uArch: Shader 2 finished CTA #4 (37634,0), 4 CTAs running
GPGPU-Sim uArch: Shader 7 finished CTA #3 (37634,0), 4 CTAs running
GPGPU-Sim uArch: core:  2, cta: 4 initialized @(37635,0)
GPGPU-Sim uArch: core:  7, cta: 3 initialized @(37635,0)
GPGPU-Sim uArch: Shader 3 finished CTA #3 (37640,0), 4 CTAs running
GPGPU-Sim uArch: core:  3, cta: 3 initialized @(37641,0)
GPGPU-Sim uArch: Shader 7 finished CTA #4 (37647,0), 4 CTAs running
GPGPU-Sim uArch: core:  7, cta: 4 initialized @(37648,0)
GPGPU-Sim uArch: Shader 1 finished CTA #2 (37648,0), 4 CTAs running
GPGPU-Sim uArch: core:  1, cta: 2 initialized @(37649,0)
GPGPU-Sim uArch: Shader 1 finished CTA #3 (37672,0), 4 CTAs running
GPGPU-Sim uArch: core:  1, cta: 3 initialized @(37673,0)
GPGPU-Sim uArch: Shader 1 finished CTA #4 (37678,0), 4 CTAs running
GPGPU-Sim uArch: core:  1, cta: 4 initialized @(37679,0)
GPGPU-Sim PTX: 10600000 instructions simulated : ctaid=(8,5,0) tid=(5,6,0)
GPGPU-Sim uArch: Shader 3 finished CTA #4 (37711,0), 4 CTAs running
GPGPU-Sim uArch: core:  3, cta: 4 initialized @(37712,0)
GPGPU-Sim uArch: Shader 4 finished CTA #4 (37770,0), 4 CTAs running
GPGPU-Sim uArch: core:  4, cta: 4 initialized @(37771,0)
GPGPU-Sim uArch: Shader 4 finished CTA #3 (37778,0), 4 CTAs running
GPGPU-Sim uArch: core:  4, cta: 3 initialized @(37779,0)
GPGPU-Sim uArch: Shader 10 finished CTA #4 (37875,0), 4 CTAs running
GPGPU-Sim uArch: core: 10, cta: 4 initialized @(37876,0)
GPGPU-Sim PTX: 10700000 instructions simulated : ctaid=(13,4,0) tid=(12,2,0)
GPGPU-Sim PTX: 10800000 instructions simulated : ctaid=(14,5,0) tid=(8,4,0)
GPGPU-Sim uArch: cycles simulated: 38500  inst.: 10536571 (ipc=273.7) sim_rate=405252 (inst/sec) elapsed = 0:0:00:26 / Sun Feb 28 21:40:15 2016
GPGPU-Sim PTX: 10900000 instructions simulated : ctaid=(9,1,0) tid=(3,4,0)
GPGPU-Sim PTX: 11000000 instructions simulated : ctaid=(10,1,0) tid=(13,3,0)
GPGPU-Sim uArch: cycles simulated: 40000  inst.: 10801044 (ipc=270.0) sim_rate=400038 (inst/sec) elapsed = 0:0:00:27 / Sun Feb 28 21:40:16 2016
GPGPU-Sim PTX: 11100000 instructions simulated : ctaid=(8,0,0) tid=(3,4,0)
GPGPU-Sim PTX: 11200000 instructions simulated : ctaid=(8,2,0) tid=(2,3,0)
GPGPU-Sim PTX: 11300000 instructions simulated : ctaid=(4,1,0) tid=(15,4,0)
GPGPU-Sim uArch: cycles simulated: 42000  inst.: 11094737 (ipc=264.2) sim_rate=396240 (inst/sec) elapsed = 0:0:00:28 / Sun Feb 28 21:40:17 2016
GPGPU-Sim PTX: 11400000 instructions simulated : ctaid=(7,4,0) tid=(10,4,0)
GPGPU-Sim PTX: 11500000 instructions simulated : ctaid=(9,6,0) tid=(6,0,0)
GPGPU-Sim PTX: 11600000 instructions simulated : ctaid=(15,5,0) tid=(5,1,0)
GPGPU-Sim uArch: cycles simulated: 43500  inst.: 11345052 (ipc=260.8) sim_rate=391208 (inst/sec) elapsed = 0:0:00:29 / Sun Feb 28 21:40:18 2016
GPGPU-Sim PTX: 11700000 instructions simulated : ctaid=(9,1,0) tid=(3,7,0)
GPGPU-Sim PTX: 11800000 instructions simulated : ctaid=(6,5,0) tid=(8,2,0)
GPGPU-Sim PTX: 11900000 instructions simulated : ctaid=(8,1,0) tid=(4,4,0)
GPGPU-Sim PTX: 12000000 instructions simulated : ctaid=(8,0,0) tid=(12,2,0)
GPGPU-Sim uArch: cycles simulated: 45500  inst.: 11718123 (ipc=257.5) sim_rate=390604 (inst/sec) elapsed = 0:0:00:30 / Sun Feb 28 21:40:19 2016
GPGPU-Sim PTX: 12100000 instructions simulated : ctaid=(5,6,0) tid=(7,6,0)
GPGPU-Sim uArch: Shader 14 finished CTA #2 (46089,0), 4 CTAs running
GPGPU-Sim uArch: core: 14, cta: 2 initialized @(46090,0)
GPGPU-Sim PTX: 12200000 instructions simulated : ctaid=(4,1,0) tid=(15,4,0)
GPGPU-Sim PTX: 12300000 instructions simulated : ctaid=(13,6,0) tid=(13,5,0)
GPGPU-Sim PTX: 12400000 instructions simulated : ctaid=(2,5,0) tid=(12,6,0)
GPGPU-Sim uArch: cycles simulated: 47000  inst.: 12170393 (ipc=258.9) sim_rate=392593 (inst/sec) elapsed = 0:0:00:31 / Sun Feb 28 21:40:20 2016
GPGPU-Sim PTX: 12500000 instructions simulated : ctaid=(5,6,0) tid=(1,5,0)
GPGPU-Sim PTX: 12600000 instructions simulated : ctaid=(13,5,0) tid=(15,2,0)
GPGPU-Sim PTX: 12700000 instructions simulated : ctaid=(1,5,0) tid=(2,0,0)
GPGPU-Sim PTX: 12800000 instructions simulated : ctaid=(4,6,0) tid=(0,3,0)
GPGPU-Sim uArch: Shader 7 finished CTA #2 (47823,0), 4 CTAs running
GPGPU-Sim uArch: core:  7, cta: 2 initialized @(47824,0)
GPGPU-Sim PTX: 12900000 instructions simulated : ctaid=(13,4,0) tid=(0,5,0)
GPGPU-Sim uArch: cycles simulated: 48000  inst.: 12609826 (ipc=262.7) sim_rate=394057 (inst/sec) elapsed = 0:0:00:32 / Sun Feb 28 21:40:21 2016
GPGPU-Sim PTX: 13000000 instructions simulated : ctaid=(8,4,0) tid=(11,3,0)
GPGPU-Sim PTX: 13100000 instructions simulated : ctaid=(13,5,0) tid=(5,4,0)
GPGPU-Sim PTX: 13200000 instructions simulated : ctaid=(7,5,0) tid=(15,6,0)
GPGPU-Sim PTX: 13300000 instructions simulated : ctaid=(3,6,0) tid=(15,6,0)
GPGPU-Sim PTX: 13400000 instructions simulated : ctaid=(7,6,0) tid=(6,1,0)
GPGPU-Sim uArch: cycles simulated: 49000  inst.: 13072490 (ipc=266.8) sim_rate=396136 (inst/sec) elapsed = 0:0:00:33 / Sun Feb 28 21:40:22 2016
GPGPU-Sim PTX: 13500000 instructions simulated : ctaid=(0,5,0) tid=(6,1,0)
GPGPU-Sim PTX: 13600000 instructions simulated : ctaid=(11,5,0) tid=(10,5,0)
GPGPU-Sim PTX: 13700000 instructions simulated : ctaid=(11,0,0) tid=(6,5,0)
GPGPU-Sim PTX: 13800000 instructions simulated : ctaid=(12,0,0) tid=(7,1,0)
GPGPU-Sim PTX: 13900000 instructions simulated : ctaid=(12,5,0) tid=(12,6,0)
GPGPU-Sim uArch: cycles simulated: 50000  inst.: 13577265 (ipc=271.5) sim_rate=399331 (inst/sec) elapsed = 0:0:00:34 / Sun Feb 28 21:40:23 2016
GPGPU-Sim PTX: 14000000 instructions simulated : ctaid=(13,6,0) tid=(5,0,0)
GPGPU-Sim PTX: 14100000 instructions simulated : ctaid=(10,0,0) tid=(2,0,0)
GPGPU-Sim PTX: 14200000 instructions simulated : ctaid=(5,5,0) tid=(9,4,0)
GPGPU-Sim PTX: 14300000 instructions simulated : ctaid=(11,5,0) tid=(5,5,0)
GPGPU-Sim PTX: 14400000 instructions simulated : ctaid=(5,5,0) tid=(7,2,0)
GPGPU-Sim PTX: 14500000 instructions simulated : ctaid=(11,4,0) tid=(3,1,0)
GPGPU-Sim uArch: cycles simulated: 51000  inst.: 14137561 (ipc=277.2) sim_rate=403930 (inst/sec) elapsed = 0:0:00:35 / Sun Feb 28 21:40:24 2016
GPGPU-Sim PTX: 14600000 instructions simulated : ctaid=(4,5,0) tid=(6,4,0)
GPGPU-Sim PTX: 14700000 instructions simulated : ctaid=(0,6,0) tid=(15,3,0)
GPGPU-Sim PTX: 14800000 instructions simulated : ctaid=(8,4,0) tid=(1,3,0)
GPGPU-Sim PTX: 14900000 instructions simulated : ctaid=(7,5,0) tid=(6,1,0)
GPGPU-Sim PTX: 15000000 instructions simulated : ctaid=(6,5,0) tid=(1,1,0)
GPGPU-Sim PTX: 15100000 instructions simulated : ctaid=(7,0,0) tid=(9,3,0)
GPGPU-Sim uArch: cycles simulated: 52000  inst.: 14710418 (ipc=282.9) sim_rate=408622 (inst/sec) elapsed = 0:0:00:36 / Sun Feb 28 21:40:25 2016
GPGPU-Sim PTX: 15200000 instructions simulated : ctaid=(15,4,0) tid=(4,5,0)
GPGPU-Sim PTX: 15300000 instructions simulated : ctaid=(3,6,0) tid=(10,6,0)
GPGPU-Sim PTX: 15400000 instructions simulated : ctaid=(10,5,0) tid=(12,6,0)
GPGPU-Sim PTX: 15500000 instructions simulated : ctaid=(12,0,0) tid=(4,1,0)
GPGPU-Sim PTX: 15600000 instructions simulated : ctaid=(4,0,0) tid=(11,4,0)
GPGPU-Sim uArch: Shader 14 finished CTA #3 (52986,0), 4 CTAs running
GPGPU-Sim uArch: core: 14, cta: 3 initialized @(52987,0)
GPGPU-Sim uArch: cycles simulated: 53000  inst.: 15257662 (ipc=287.9) sim_rate=412369 (inst/sec) elapsed = 0:0:00:37 / Sun Feb 28 21:40:26 2016
GPGPU-Sim PTX: 15700000 instructions simulated : ctaid=(13,5,0) tid=(3,5,0)
GPGPU-Sim PTX: 15800000 instructions simulated : ctaid=(13,4,0) tid=(9,7,0)
GPGPU-Sim uArch: Shader 13 finished CTA #2 (53418,0), 4 CTAs running
GPGPU-Sim uArch: core: 13, cta: 2 initialized @(53419,0)
GPGPU-Sim PTX: 15900000 instructions simulated : ctaid=(10,1,0) tid=(13,1,0)
GPGPU-Sim PTX: 16000000 instructions simulated : ctaid=(7,6,0) tid=(10,0,0)
GPGPU-Sim PTX: 16100000 instructions simulated : ctaid=(11,4,0) tid=(11,2,0)
GPGPU-Sim uArch: cycles simulated: 54000  inst.: 15755769 (ipc=291.8) sim_rate=414625 (inst/sec) elapsed = 0:0:00:38 / Sun Feb 28 21:40:27 2016
GPGPU-Sim PTX: 16200000 instructions simulated : ctaid=(11,5,0) tid=(15,0,0)
GPGPU-Sim uArch: Shader 10 finished CTA #3 (54172,0), 4 CTAs running
GPGPU-Sim uArch: core: 10, cta: 3 initialized @(54173,0)
GPGPU-Sim PTX: 16300000 instructions simulated : ctaid=(14,6,0) tid=(11,7,0)
GPGPU-Sim PTX: 16400000 instructions simulated : ctaid=(5,5,0) tid=(11,7,0)
GPGPU-Sim PTX: 16500000 instructions simulated : ctaid=(4,1,0) tid=(9,1,0)
GPGPU-Sim uArch: Shader 5 finished CTA #1 (54843,0), 4 CTAs running
GPGPU-Sim uArch: core:  5, cta: 1 initialized @(54844,0)
GPGPU-Sim PTX: 16600000 instructions simulated : ctaid=(13,5,0) tid=(9,2,0)
GPGPU-Sim uArch: Shader 11 finished CTA #4 (54935,0), 4 CTAs running
GPGPU-Sim uArch: core: 11, cta: 4 initialized @(54936,0)
GPGPU-Sim uArch: cycles simulated: 55000  inst.: 16206792 (ipc=294.7) sim_rate=415558 (inst/sec) elapsed = 0:0:00:39 / Sun Feb 28 21:40:28 2016
GPGPU-Sim PTX: 16700000 instructions simulated : ctaid=(2,7,0) tid=(13,4,0)
GPGPU-Sim PTX: 16800000 instructions simulated : ctaid=(13,6,0) tid=(4,3,0)
GPGPU-Sim PTX: 16900000 instructions simulated : ctaid=(10,5,0) tid=(0,1,0)
GPGPU-Sim uArch: Shader 13 finished CTA #0 (55689,0), 4 CTAs running
GPGPU-Sim uArch: core: 13, cta: 0 initialized @(55690,0)
GPGPU-Sim PTX: 17000000 instructions simulated : ctaid=(5,7,0) tid=(6,2,0)
GPGPU-Sim PTX: 17100000 instructions simulated : ctaid=(6,7,0) tid=(0,1,0)
GPGPU-Sim uArch: cycles simulated: 56000  inst.: 16664820 (ipc=297.6) sim_rate=416620 (inst/sec) elapsed = 0:0:00:40 / Sun Feb 28 21:40:29 2016
GPGPU-Sim PTX: 17200000 instructions simulated : ctaid=(9,7,0) tid=(8,3,0)
GPGPU-Sim uArch: Shader 12 finished CTA #3 (56179,0), 4 CTAs running
GPGPU-Sim uArch: core: 12, cta: 3 initialized @(56180,0)
GPGPU-Sim uArch: Shader 13 finished CTA #1 (56212,0), 4 CTAs running
GPGPU-Sim uArch: core: 13, cta: 1 initialized @(56213,0)
GPGPU-Sim PTX: 17300000 instructions simulated : ctaid=(3,5,0) tid=(0,7,0)
GPGPU-Sim PTX: 17400000 instructions simulated : ctaid=(15,4,0) tid=(2,0,0)
GPGPU-Sim PTX: 17500000 instructions simulated : ctaid=(7,5,0) tid=(1,1,0)
GPGPU-Sim uArch: Shader 13 finished CTA #3 (56844,0), 4 CTAs running
GPGPU-Sim uArch: core: 13, cta: 3 initialized @(56845,0)
GPGPU-Sim PTX: 17600000 instructions simulated : ctaid=(12,7,0) tid=(11,0,0)
GPGPU-Sim uArch: cycles simulated: 57000  inst.: 17148435 (ipc=300.8) sim_rate=418254 (inst/sec) elapsed = 0:0:00:41 / Sun Feb 28 21:40:30 2016
GPGPU-Sim uArch: Shader 4 finished CTA #0 (57139,0), 4 CTAs running
GPGPU-Sim uArch: core:  4, cta: 0 initialized @(57140,0)
GPGPU-Sim PTX: 17700000 instructions simulated : ctaid=(7,5,0) tid=(12,4,0)
GPGPU-Sim PTX: 17800000 instructions simulated : ctaid=(12,5,0) tid=(6,1,0)
GPGPU-Sim uArch: Shader 6 finished CTA #1 (57467,0), 4 CTAs running
GPGPU-Sim uArch: core:  6, cta: 1 initialized @(57468,0)
GPGPU-Sim PTX: 17900000 instructions simulated : ctaid=(5,7,0) tid=(8,3,0)
GPGPU-Sim PTX: 18000000 instructions simulated : ctaid=(5,1,0) tid=(6,4,0)
GPGPU-Sim uArch: Shader 7 finished CTA #4 (57884,0), 4 CTAs running
GPGPU-Sim uArch: core:  7, cta: 4 initialized @(57885,0)
GPGPU-Sim PTX: 18100000 instructions simulated : ctaid=(14,6,0) tid=(11,6,0)
GPGPU-Sim uArch: cycles simulated: 58000  inst.: 17628164 (ipc=303.9) sim_rate=419718 (inst/sec) elapsed = 0:0:00:42 / Sun Feb 28 21:40:31 2016
GPGPU-Sim uArch: Shader 9 finished CTA #3 (58133,0), 4 CTAs running
GPGPU-Sim uArch: core:  9, cta: 3 initialized @(58134,0)
GPGPU-Sim PTX: 18200000 instructions simulated : ctaid=(14,5,0) tid=(2,6,0)
GPGPU-Sim uArch: Shader 9 finished CTA #4 (58252,0), 4 CTAs running
GPGPU-Sim uArch: core:  9, cta: 4 initialized @(58253,0)
GPGPU-Sim PTX: 18300000 instructions simulated : ctaid=(5,0,0) tid=(12,4,0)
GPGPU-Sim PTX: 18400000 instructions simulated : ctaid=(11,7,0) tid=(1,1,0)
GPGPU-Sim uArch: Shader 14 finished CTA #0 (58681,0), 4 CTAs running
GPGPU-Sim uArch: core: 14, cta: 0 initialized @(58682,0)
GPGPU-Sim PTX: 18500000 instructions simulated : ctaid=(0,7,0) tid=(4,3,0)
GPGPU-Sim uArch: Shader 14 finished CTA #1 (58840,0), 4 CTAs running
GPGPU-Sim uArch: core: 14, cta: 1 initialized @(58841,0)
GPGPU-Sim uArch: Shader 8 finished CTA #3 (58881,0), 4 CTAs running
GPGPU-Sim uArch: core:  8, cta: 3 initialized @(58882,0)
GPGPU-Sim uArch: Shader 8 finished CTA #2 (58990,0), 4 CTAs running
GPGPU-Sim uArch: core:  8, cta: 2 initialized @(58991,0)
GPGPU-Sim uArch: cycles simulated: 59000  inst.: 18093077 (ipc=306.7) sim_rate=420769 (inst/sec) elapsed = 0:0:00:43 / Sun Feb 28 21:40:32 2016
GPGPU-Sim PTX: 18600000 instructions simulated : ctaid=(9,1,0) tid=(0,7,0)
GPGPU-Sim PTX: 18700000 instructions simulated : ctaid=(15,7,0) tid=(2,4,0)
[...]
	L1I_total_cache_misses = 87312
	L1I_total_cache_miss_rate = 0.0686
	L1I_total_cache_pending_hits = 0
	L1I_total_cache_reservation_fails = 192370
L1D_cache:
	L1D_cache_core[0]: Access = 15684, Miss = 3818, Miss_rate = 0.243, Pending_hits = 129, Reservation_fails = 57782
	L1D_cache_core[1]: Access = 16356, Miss = 4201, Miss_rate = 0.257, Pending_hits = 156, Reservation_fails = 69274
	L1D_cache_core[2]: Access = 17008, Miss = 4107, Miss_rate = 0.241, Pending_hits = 153, Reservation_fails = 60925
	L1D_cache_core[3]: Access = 16690, Miss = 3949, Miss_rate = 0.237, Pending_hits = 216, Reservation_fails = 57125
	L1D_cache_core[4]: Access = 16758, Miss = 4112, Miss_rate = 0.245, Pending_hits = 143, Reservation_fails = 60957
	L1D_cache_core[5]: Access = 15228, Miss = 3637, Miss_rate = 0.239, Pending_hits = 171, Reservation_fails = 54972
	L1D_cache_core[6]: Access = 17334, Miss = 4229, Miss_rate = 0.244, Pending_hits = 114, Reservation_fails = 57181
	L1D_cache_core[7]: Access = 16309, Miss = 3906, Miss_rate = 0.239, Pending_hits = 98, Reservation_fails = 56050
	L1D_cache_core[8]: Access = 16867, Miss = 4118, Miss_rate = 0.244, Pending_hits = 136, Reservation_fails = 59227
	L1D_cache_core[9]: Access = 17098, Miss = 4005, Miss_rate = 0.234, Pending_hits = 230, Reservation_fails = 50069
	L1D_cache_core[10]: Access = 16836, Miss = 3929, Miss_rate = 0.233, Pending_hits = 189, Reservation_fails = 52894
	L1D_cache_core[11]: Access = 16836, Miss = 3828, Miss_rate = 0.227, Pending_hits = 264, Reservation_fails = 48053
	L1D_cache_core[12]: Access = 18060, Miss = 4359, Miss_rate = 0.241, Pending_hits = 138, Reservation_fails = 52663
	L1D_cache_core[13]: Access = 17230, Miss = 4204, Miss_rate = 0.244, Pending_hits = 136, Reservation_fails = 51444
	L1D_cache_core[14]: Access = 16466, Miss = 3961, Miss_rate = 0.241, Pending_hits = 127, Reservation_fails = 51558
	L1D_total_cache_accesses = 250760
	L1D_total_cache_misses = 60363
	L1D_total_cache_miss_rate = 0.2407
	L1D_total_cache_pending_hits = 2400
	L1D_total_cache_reservation_fails = 840174
	L1D_cache_data_port_util = 0.072
	L1D_cache_fill_port_util = 0.004
L1C_cache:
	L1C_total_cache_accesses = 53053
	L1C_total_cache_misses = 250
	L1C_total_cache_miss_rate = 0.0047
	L1C_total_cache_pending_hits = 0
	L1C_total_cache_reservation_fails = 0
L1T_cache:
	L1T_total_cache_accesses = 0
	L1T_total_cache_misses = 0
	L1T_total_cache_pending_hits = 0
	L1T_total_cache_reservation_fails = 0

Total_core_cache_stats:
	Total_core_cache_stats_breakdown[GLOBAL_ACC_R][HIT] = 146187
	Total_core_cache_stats_breakdown[GLOBAL_ACC_R][HIT_RESERVED] = 956
	Total_core_cache_stats_breakdown[GLOBAL_ACC_R][MISS] = 3813
	Total_core_cache_stats_breakdown[GLOBAL_ACC_R][RESERVATION_FAIL] = 75261
	Total_core_cache_stats_breakdown[LOCAL_ACC_R][HIT] = 11842
	Total_core_cache_stats_breakdown[LOCAL_ACC_R][HIT_RESERVED] = 1444
	Total_core_cache_stats_breakdown[LOCAL_ACC_R][MISS] = 7410
	Total_core_cache_stats_breakdown[LOCAL_ACC_R][RESERVATION_FAIL] = 74047
	Total_core_cache_stats_breakdown[CONST_ACC_R][HIT] = 52803
	Total_core_cache_stats_breakdown[CONST_ACC_R][MISS] = 250
	Total_core_cache_stats_breakdown[GLOBAL_ACC_W][HIT] = 3446
	Total_core_cache_stats_breakdown[GLOBAL_ACC_W][MISS] = 4746
	Total_core_cache_stats_breakdown[GLOBAL_ACC_W][RESERVATION_FAIL] = 74627
	Total_core_cache_stats_breakdown[LOCAL_ACC_W][HIT] = 26522
	Total_core_cache_stats_breakdown[LOCAL_ACC_W][MISS] = 44394
	Total_core_cache_stats_breakdown[LOCAL_ACC_W][RESERVATION_FAIL] = 616239
	Total_core_cache_stats_breakdown[INST_ACC_R][HIT] = 1186115
	Total_core_cache_stats_breakdown[INST_ACC_R][MISS] = 87312
	Total_core_cache_stats_breakdown[INST_ACC_R][RESERVATION_FAIL] = 192370
Shader 0 warp_id issue ditsribution:
warp_id:
0, 1, 2, 3, 4, 5, 6, 7, 8, 9, 10, 11, 12, 13, 14, 15, 16, 17, 18, 19, 
distro:
7829, 7829, 7137, 7137, 7864, 7860, 7169, 7169, 7808, 7657, 8273, 8178, 7153, 7880, 7153, 7158, 7133, 7138, 6441, 7184, 
gpgpu_n_tot_thrd_icount = 74417120
gpgpu_n_tot_w_icount = 2325535
gpgpu_n_stall_shd_mem = 855588
gpgpu_n_mem_read_local = 7410
gpgpu_n_mem_write_local = 44394
gpgpu_n_mem_read_global = 3813
gpgpu_n_mem_write_global = 13286
gpgpu_n_mem_texture = 0
gpgpu_n_mem_const = 30
gpgpu_n_load_insn  = 4550360
gpgpu_n_store_insn = 2109827
gpgpu_n_shmem_insn = 0
gpgpu_n_tex_insn = 0
gpgpu_n_const_mem_insn = 786432
gpgpu_n_param_mem_insn = 827782
gpgpu_n_shmem_bkconflict = 0
gpgpu_n_cache_bkconflict = 0
gpgpu_n_intrawarp_mshr_merge = 0
gpgpu_n_cmem_portconflict = 0
gpgpu_stall_shd_mem[c_mem][bk_conf] = 0
gpgpu_stall_shd_mem[c_mem][mshr_rc] = 0
gpgpu_stall_shd_mem[c_mem][icnt_rc] = 0
gpgpu_stall_shd_mem[c_mem][data_port_stall] = 0
gpgpu_stall_shd_mem[t_mem][mshr_rc] = 0
gpgpu_stall_shd_mem[t_mem][icnt_rc] = 0
gpgpu_stall_shd_mem[t_mem][data_port_stall] = 0
gpgpu_stall_shd_mem[s_mem][bk_conf] = 0
gpgpu_stall_shd_mem[gl_mem][bk_conf] = 0
gpgpu_stall_shd_mem[gl_mem][coal_stall] = 855588
gpgpu_stall_shd_mem[gl_mem][data_port_stall] = 0
gpgpu_stall_shd_mem[g_mem_ld][mshr_rc] = 0
gpgpu_stall_shd_mem[g_mem_ld][icnt_rc] = 0
gpgpu_stall_shd_mem[g_mem_ld][wb_icnt_rc] = 0
gpgpu_stall_shd_mem[g_mem_ld][wb_rsrv_fail] = 0
gpgpu_stall_shd_mem[g_mem_st][mshr_rc] = 0
gpgpu_stall_shd_mem[g_mem_st][icnt_rc] = 0
gpgpu_stall_shd_mem[g_mem_st][wb_icnt_rc] = 0
gpgpu_stall_shd_mem[g_mem_st][wb_rsrv_fail] = 0
gpgpu_stall_shd_mem[l_mem_ld][mshr_rc] = 0
gpgpu_stall_shd_mem[l_mem_ld][icnt_rc] = 0
gpgpu_stall_shd_mem[l_mem_ld][wb_icnt_rc] = 0
gpgpu_stall_shd_mem[l_mem_ld][wb_rsrv_fail] = 0
gpgpu_stall_shd_mem[l_mem_st][mshr_rc] = 0
gpgpu_stall_shd_mem[l_mem_st][icnt_rc] = 0
gpgpu_stall_shd_mem[l_mem_ld][wb_icnt_rc] = 0
gpgpu_stall_shd_mem[l_mem_ld][wb_rsrv_fail] = 0
gpu_reg_bank_conflict_stalls = 0
Warp Occupancy Distribution:
Stall:1488958	W0_Idle:651761	W0_Scoreboard:928336	W1:48863	W2:33322	W3:21802	W4:23597	W5:24705	W6:19798	W7:24952	W8:20998	W9:20316	W10:22506	W11:14360	W12:12124	W13:18373	W14:12178	W15:12437	W16:21331	W17:12681	W18:11401	W19:9185	W20:12119	W21:9366	W22:9060	W23:10821	W24:8258	W25:8839	W26:11996	W27:12331	W28:12028	W29:11659	W30:12707	W31:13732	W32:1807690
traffic_breakdown_coretomem[CONST_ACC_R] = 240 {8:30,}
traffic_breakdown_coretomem[GLOBAL_ACC_R] = 30504 {8:3813,}
traffic_breakdown_coretomem[GLOBAL_ACC_W] = 589824 {72:8192,}
traffic_breakdown_coretomem[INST_ACC_R] = 103224 {8:12903,}
traffic_breakdown_coretomem[L1_WRBK_ACC] = 692784 {136:5094,}
traffic_breakdown_coretomem[LOCAL_ACC_R] = 59280 {8:7410,}
traffic_breakdown_coretomem[LOCAL_ACC_W] = 5935312 {40:1022,72:65,136:43307,}
traffic_breakdown_memtocore[CONST_ACC_R] = 2160 {72:30,}
traffic_breakdown_memtocore[GLOBAL_ACC_R] = 518568 {136:3813,}
traffic_breakdown_memtocore[GLOBAL_ACC_W] = 65536 {8:8192,}
traffic_breakdown_memtocore[INST_ACC_R] = 1754808 {136:12903,}
traffic_breakdown_memtocore[LOCAL_ACC_R] = 1007760 {136:7410,}
traffic_breakdown_memtocore[LOCAL_ACC_W] = 355152 {8:44394,}
maxmrqlatency = 794 
maxdqlatency = 0 
maxmflatency = 2342 
averagemflatency = 533 
max_icnt2mem_latency = 1455 
max_icnt2sh_latency = 184695 
mrq_lat_table:23809 	1379 	2091 	3705 	13893 	17167 	17757 	9939 	2307 	137 	0 	0 	0 	0 	0 	0 	0 	0 	0 	0 	0 	0 	0 	0 	0 	0 	0 	0 	0 	0 	0 	0 	
dq_lat_table:0 	0 	0 	0 	0 	0 	0 	0 	0 	0 	0 	0 	0 	0 	0 	0 	0 	0 	0 	0 	0 	0 	0 	0 	0 	0 	0 	0 	0 	0 	0 	0 	
mf_lat_table:0 	0 	0 	0 	0 	0 	0 	14867 	21691 	20924 	6332 	25 	0 	0 	0 	0 	0 	0 	0 	0 	0 	0 	0 	0 	0 	0 	0 	0 	0 	0 	0 	0 	
icnt2mem_lat_table:0 	0 	0 	14695 	8771 	9249 	18798 	10244 	15069 	4795 	215 	0 	0 	0 	0 	0 	0 	0 	0 	0 	0 	0 	0 	0 	
icnt2sh_lat_table:0 	0 	0 	6441 	4336 	474 	2 	0 	0 	95 	229 	692 	1481 	3070 	4333 	8690 	18778 	15218 	0 	0 	0 	0 	0 	0 	
mf_lat_pw_table:0 	0 	0 	0 	0 	0 	0 	61 	156 	121 	18 	0 	0 	0 	0 	0 	0 	0 	0 	0 	0 	0 	0 	0 	0 	0 	0 	0 	0 	0 	0 	0 	
maximum concurrent accesses to same row:
dram[0]:        64        64        62        56        54        56        58        60        44        46        36        50        48        46        42        34 
dram[1]:        64        64        52        60        52        60        54        62        40        52        20        52        24        28        32        42 
dram[2]:        64        64        62        56        60        58        62        60        52        50        28        52        48        40        42        32 
maximum service time to same row:
dram[0]:     13534     13409     16636     16517     16562     16530     16302     16073     18542     16500     14383     14466     11211      8958     17432     16704 
dram[1]:     10874     12991     16472     16277     16536     16803     16112     15763     16924     16542     13414     14295     13002     12569     16900     17821 
dram[2]:     10102     12887     16787     16462     16793     16831     16557     15999     16796     16864     13199     14507     13017     12697     17140     17503 
average row accesses per activate:
dram[0]:  2.916064  2.825352  2.811178  2.850746  2.742254  2.662683  2.721826  2.797101  2.703863  2.712409  2.711111  2.779614  2.800270  2.909348  2.894137  2.824645 
dram[1]:  2.565163  2.860570  2.563786  2.911576  2.637816  2.814121  2.576871  2.726316  2.753912  2.719168  2.625488  2.758967  2.689521  2.834043  2.778997  2.903390 
dram[2]:  2.890190  2.757282  3.054662  2.693333  2.838617  2.785206  2.952012  2.751111  2.805855  2.700719  2.774150  2.778417  3.033528  2.798331  2.979661  2.881579 
average row locality = 92184/33116 = 2.783669
number of total memory accesses made:
dram[0]:         0         0         0         0         0         0         0         0         0         0         0         0         0         0         0         0 
dram[1]:         0         0         0         0         0         0         0         0         0         0         0         0         0         0         0         0 
dram[2]:         0         0         0         0         0         0         0         0         0         0         0         0         0         0         0         0 
total accesses: 0
min_bank_accesses = 0!
min_chip_accesses = 0!
number of total read accesses:
dram[0]:       935       939       862       879       903       928       892       908       879       870       891       932       969       964       823       822 
dram[1]:       966       895       861       834       918       907       887       847       912       852       936       891       976       938       818       799 
dram[2]:       931       947       880       838       910       914       904       875       852       877       942       899       980       945       815       814 
total reads: 42956
bank skew: 980/799 = 1.23
chip skew: 14396/14237 = 1.01
number of total write accesses:
dram[0]:      1080      1067       999      1031      1044      1077      1016      1022      1011       988      1061      1086      1106      1090       954       966 
dram[1]:      1081      1013      1008       977      1063      1046      1007       966      1024       978      1083      1032      1103      1060       955       914 
dram[2]:      1043      1041      1020       980      1060      1044      1003       982       969      1000      1097      1032      1101      1067       943       938 
total reads: 49228
bank skew: 1106/914 = 1.21
chip skew: 16598/16310 = 1.02
average mf latency per bank:
dram[0]:        346       341       365       352       352       345       358       349       351       335       371       374       409       395       374       365
dram[1]:        345       339       349       381       341       368       343       377       333       360       362       390       386       410       366       380
dram[2]:        365       343       380       375       369       360       375       364       375       360       403       400       420       404       406       379
maximum mf latency per bank:
dram[0]:       1888      1854      2297      1756      2325      1840      2342      1783      1937      1835      1980      1607      1832      1924      1785      1730
dram[1]:       1978      1685      1892      1983      2072      1900      1948      1935      1635      2057      1785      2006      1686      1843      2071      1871
dram[2]:       1730      1724      1860      1760      2190      1946      2049      1811      2173      1996      1986      1818      1857      1721      1857      1845

Number of Memory Banks Accessed per Memory Operation per Warp (from 0):
0	0	0	0	0	0	0	0	0	0	0	0	0	0	0	0	0	0	0	0	0	0	0	0	0	0	0	0	0	0	0	0	0	0	0	0	0	0	0	0	0	0	0	0	0	0	0	0	
Average # of Memory Banks Accessed per Memory Operation per Warp=-nan

position of mrq chosen
0	0	0	0	0	0	0	0	0	0	0	0	0	0	0	0	

average position of mrq chosen = -nan
Memory Partition 0: 
Cache L2_bank_000:
MSHR contents

Cache L2_bank_001:
MSHR contents

In Dram Latency Queue (total = 0): 
DRAM[0]: 16 bks, busW=4 BL=8 CL=12, tRRD=2 tCCD=6, tRCD=12 tRAS=28 tRP=12 tRC=40
n_cmd=243798 n_nop=160633 n_act=11111 n_pre=11095 n_req=30994 n_rd=28792 n_write=32167 bw_util=0.5001
n_activity=199186 dram_eff=0.6121
bk0: 1870a 160817i bk1: 1878a 160703i bk2: 1724a 162405i bk3: 1758a 162097i bk4: 1806a 154261i bk5: 1856a 155234i bk6: 1784a 154806i bk7: 1816a 154256i bk8: 1758a 163325i bk9: 1740a 166006i bk10: 1782a 155867i bk11: 1864a 153077i bk12: 1938a 146251i bk13: 1928a 148208i bk14: 1646a 159265i bk15: 1644a 159290i 
dram_util_bins: 0 0 0 0 0 0 0 0 0 0
dram_eff_bins: 0 0 0 0 0 0 0 0 0 0
mrqq: max=16 avg=9.60119
Memory Partition 1: 
Cache L2_bank_002:
MSHR contents

Cache L2_bank_003:
MSHR contents

In Dram Latency Queue (total = 0): 
DRAM[1]: 16 bks, busW=4 BL=8 CL=12, tRRD=2 tCCD=6, tRCD=12 tRAS=28 tRP=12 tRC=40
n_cmd=243798 n_nop=161321 n_act=11209 n_pre=11193 n_req=30547 n_rd=28474 n_write=31601 bw_util=0.4928
n_activity=196950 dram_eff=0.6101
bk0: 1932a 162588i bk1: 1790a 165023i bk2: 1722a 162070i bk3: 1668a 163927i bk4: 1836a 157414i bk5: 1814a 151821i bk6: 1774a 157902i bk7: 1694a 157663i bk8: 1824a 163527i bk9: 1704a 165814i bk10: 1872a 154405i bk11: 1782a 154712i bk12: 1952a 146569i bk13: 1876a 150295i bk14: 1636a 160647i bk15: 1598a 160891i 
dram_util_bins: 0 0 0 0 0 0 0 0 0 0
dram_eff_bins: 0 0 0 0 0 0 0 0 0 0
mrqq: max=16 avg=9.43643
Memory Partition 2: 
Cache L2_bank_004:
MSHR contents

Cache L2_bank_005:
MSHR contents

In Dram Latency Queue (total = 0): 
DRAM[2]: 16 bks, busW=4 BL=8 CL=12, tRRD=2 tCCD=6, tRCD=12 tRAS=28 tRP=12 tRC=40
n_cmd=243798 n_nop=161942 n_act=10797 n_pre=10781 n_req=30643 n_rd=28646 n_write=31632 bw_util=0.4945
n_activity=195081 dram_eff=0.618
bk0: 1862a 162049i bk1: 1894a 160964i bk2: 1760a 160113i bk3: 1676a 161783i bk4: 1820a 154463i bk5: 1828a 152822i bk6: 1808a 155277i bk7: 1750a 155873i bk8: 1704a 165122i bk9: 1754a 164191i bk10: 1884a 153698i bk11: 1798a 153365i bk12: 1960a 144918i bk13: 1890a 149365i bk14: 1630a 159166i bk15: 1628a 158843i 
dram_util_bins: 0 0 0 0 0 0 0 0 0 0
dram_eff_bins: 0 0 0 0 0 0 0 0 0 0
mrqq: max=16 avg=9.58968

========= L2 cache stats =========
L2_cache_bank[0]: Access = 13671, Miss = 7154, Miss_rate = 0.523, Pending_hits = 212, Reservation_fails = 3850
L2_cache_bank[1]: Access = 13800, Miss = 7242, Miss_rate = 0.525, Pending_hits = 223, Reservation_fails = 2095
L2_cache_bank[2]: Access = 13602, Miss = 7274, Miss_rate = 0.535, Pending_hits = 209, Reservation_fails = 2803
L2_cache_bank[3]: Access = 13572, Miss = 6963, Miss_rate = 0.513, Pending_hits = 183, Reservation_fails = 2914
L2_cache_bank[4]: Access = 13526, Miss = 7214, Miss_rate = 0.533, Pending_hits = 235, Reservation_fails = 3444
L2_cache_bank[5]: Access = 13665, Miss = 7109, Miss_rate = 0.520, Pending_hits = 193, Reservation_fails = 1514
L2_total_cache_accesses = 81836
L2_total_cache_misses = 42956
L2_total_cache_miss_rate = 0.5249
L2_total_cache_pending_hits = 1255
L2_total_cache_reservation_fails = 16620
L2_total_cache_breakdown:
	L2_cache_stats_breakdown[GLOBAL_ACC_R][HIT] = 2329
	L2_cache_stats_breakdown[GLOBAL_ACC_R][HIT_RESERVED] = 84
	L2_cache_stats_breakdown[GLOBAL_ACC_R][MISS] = 1400
	L2_cache_stats_breakdown[GLOBAL_ACC_R][RESERVATION_FAIL] = 94
	L2_cache_stats_breakdown[LOCAL_ACC_R][HIT] = 4227
	L2_cache_stats_breakdown[LOCAL_ACC_R][HIT_RESERVED] = 314
	L2_cache_stats_breakdown[LOCAL_ACC_R][MISS] = 2869
	L2_cache_stats_breakdown[LOCAL_ACC_R][RESERVATION_FAIL] = 613
	L2_cache_stats_breakdown[CONST_ACC_R][HIT] = 22
	L2_cache_stats_breakdown[CONST_ACC_R][HIT_RESERVED] = 6
	L2_cache_stats_breakdown[CONST_ACC_R][MISS] = 2
	L2_cache_stats_breakdown[CONST_ACC_R][RESERVATION_FAIL] = 270
	L2_cache_stats_breakdown[GLOBAL_ACC_W][HIT] = 5534
	L2_cache_stats_breakdown[GLOBAL_ACC_W][HIT_RESERVED] = 606
	L2_cache_stats_breakdown[GLOBAL_ACC_W][MISS] = 2052
	L2_cache_stats_breakdown[GLOBAL_ACC_W][RESERVATION_FAIL] = 469
	L2_cache_stats_breakdown[LOCAL_ACC_W][HIT] = 11878
	L2_cache_stats_breakdown[LOCAL_ACC_W][HIT_RESERVED] = 63
	L2_cache_stats_breakdown[LOCAL_ACC_W][MISS] = 32453
	L2_cache_stats_breakdown[LOCAL_ACC_W][RESERVATION_FAIL] = 7971
	L2_cache_stats_breakdown[L1_WRBK_ACC][HIT] = 1008
	L2_cache_stats_breakdown[L1_WRBK_ACC][MISS] = 4086
	L2_cache_stats_breakdown[L1_WRBK_ACC][RESERVATION_FAIL] = 463
	L2_cache_stats_breakdown[INST_ACC_R][HIT] = 12627
	L2_cache_stats_breakdown[INST_ACC_R][HIT_RESERVED] = 182
	L2_cache_stats_breakdown[INST_ACC_R][MISS] = 94
	L2_cache_stats_breakdown[INST_ACC_R][RESERVATION_FAIL] = 6740
L2_cache_data_port_util = 0.128
L2_cache_fill_port_util = 0.155

icnt_total_pkts_mem_to_simt=173306
icnt_total_pkts_simt_to_mem=292976
LD_mem_lat_dist  0 0 0 0 0 0 0 0 0 0 0 0 0 0 0 0 0 0 0 0 0 0 0 0 0 0 0
ST_mem_lat_dist  0 0 0 0 0 0 0 0 0 0 0 0 0 0 0 0 0 0 0 0 0 0 0 0 0 0 0
----------------------------Interconnect-DETAILS--------------------------------
Class 0:
Packet latency average = 36.5581
	minimum = 6
	maximum = 1017
Network latency average = 26.2175
	minimum = 6
	maximum = 774
Slowest packet = 256
Flit latency average = 25.7295
	minimum = 6
	maximum = 770
Slowest flit = 1161
Fragmentation average = 0.658181
	minimum = 0
	maximum = 711
Injected packet rate average = 0.0317996
	minimum = 0 (at node 21)
	maximum = 0.070478 (at node 16)
Accepted packet rate average = 0.0317996
	minimum = 0 (at node 21)
	maximum = 0.0747174 (at node 16)
Injected flit rate average = 0.0935034
	minimum = 0 (at node 21)
	maximum = 0.159966 (at node 16)
Accepted flit rate average= 0.0935034
	minimum = 0 (at node 21)
	maximum = 0.266936 (at node 17)
Injected packet length average = 2.9404
Accepted packet length average = 2.9404
Total in-flight flits = 0 (0 measured)
====== Overall Traffic Statistics ======
====== Traffic class 0 ======
Packet latency average = 36.5581 (1 samples)
	minimum = 6 (1 samples)
	maximum = 1017 (1 samples)
Network latency average = 26.2175 (1 samples)
	minimum = 6 (1 samples)
	maximum = 774 (1 samples)
Flit latency average = 25.7295 (1 samples)
	minimum = 6 (1 samples)
	maximum = 770 (1 samples)
Fragmentation average = 0.658181 (1 samples)
	minimum = 0 (1 samples)
	maximum = 711 (1 samples)
Injected packet rate average = 0.0317996 (1 samples)
	minimum = 0 (1 samples)
	maximum = 0.070478 (1 samples)
Accepted packet rate average = 0.0317996 (1 samples)
	minimum = 0 (1 samples)
	maximum = 0.0747174 (1 samples)
Injected flit rate average = 0.0935034 (1 samples)
	minimum = 0 (1 samples)
	maximum = 0.159966 (1 samples)
Accepted flit rate average = 0.0935034 (1 samples)
	minimum = 0 (1 samples)
	maximum = 0.266936 (1 samples)
Injected packet size average = 2.9404 (1 samples)
Accepted packet size average = 2.9404 (1 samples)
Hops average = 1 (1 samples)
----------------------------END-of-Interconnect-DETAILS-------------------------


gpgpu_simulation_time = 0 days, 0 hrs, 2 min, 33 sec (153 sec)
gpgpu_simulation_rate = 409690 (inst/sec)
gpgpu_simulation_rate = 1207 (cycle/sec)
GPGPU-Sim API: Stream Manager State
GPGPU-Sim: detected inactive GPU simulation thread

checksum=75ef40cb5b8e
Kernel Time: 151753.593750 
