

        *** GPGPU-Sim Simulator Version 3.2.2  [build 0] ***


GPGPU-Sim PTX: simulation mode 0 (can change with PTX_SIM_MODE_FUNC environment variable:
               1=functional simulation only, 0=detailed performance simulator)
GPGPU-Sim: Configuration options:

-network_mode                           1 # Interconnection network mode
-inter_config_file   config_fermi_islip.icnt # Interconnection network config file
-gpgpu_ptx_use_cuobjdump                    1 # Use cuobjdump to extract ptx and sass from binaries
-gpgpu_experimental_lib_support                    0 # Try to extract code from cuda libraries [Broken because of unknown cudaGetExportTable]
-gpgpu_ptx_convert_to_ptxplus                    0 # Convert SASS (native ISA) to ptxplus and run ptxplus
-gpgpu_ptx_force_max_capability                   20 # Force maximum compute capability
-gpgpu_ptx_inst_debug_to_file                    0 # Dump executed instructions' debug information to file
-gpgpu_ptx_inst_debug_file       inst_debug.txt # Executed instructions' debug output file
-gpgpu_ptx_inst_debug_thread_uid                    1 # Thread UID for executed instructions' debug output
-gpgpu_simd_model                       1 # 1 = post-dominator
-gpgpu_shader_core_pipeline              1536:32 # shader core pipeline config, i.e., {<nthread>:<warpsize>}
-gpgpu_tex_cache:l1  4:128:24,L:R:m:N:L,F:128:4,128:2 # per-shader L1 texture cache  (READ-ONLY) config  {<nsets>:<bsize>:<assoc>,<rep>:<wr>:<alloc>:<wr_alloc>,<mshr>:<N>:<merge>,<mq>:<rf>}
-gpgpu_const_cache:l1 64:64:2,L:R:f:N:L,A:2:32,4 # per-shader L1 constant memory cache  (READ-ONLY) config  {<nsets>:<bsize>:<assoc>,<rep>:<wr>:<alloc>:<wr_alloc>,<mshr>:<N>:<merge>,<mq>} 
-gpgpu_cache:il1     4:128:4,L:R:f:N:L,A:2:32,4 # shader L1 instruction cache config  {<nsets>:<bsize>:<assoc>,<rep>:<wr>:<alloc>:<wr_alloc>,<mshr>:<N>:<merge>,<mq>} 
-gpgpu_cache:dl1     32:128:4,L:L:m:N:H,A:32:8,8 # per-shader L1 data cache config  {<nsets>:<bsize>:<assoc>,<rep>:<wr>:<alloc>:<wr_alloc>,<mshr>:<N>:<merge>,<mq> | none}
-gpgpu_cache:dl1PrefL1                 none # per-shader L1 data cache config  {<nsets>:<bsize>:<assoc>,<rep>:<wr>:<alloc>:<wr_alloc>,<mshr>:<N>:<merge>,<mq> | none}
-gpgpu_cache:dl1PreShared                 none # per-shader L1 data cache config  {<nsets>:<bsize>:<assoc>,<rep>:<wr>:<alloc>:<wr_alloc>,<mshr>:<N>:<merge>,<mq> | none}
-gmem_skip_L1D                          0 # global memory access skip L1D cache (implements -Xptxas -dlcm=cg, default=no skip)
-gpgpu_perfect_mem                      0 # enable perfect memory mode (no cache miss)
-n_regfile_gating_group                    4 # group of lanes that should be read/written together)
-gpgpu_clock_gated_reg_file                    0 # enable clock gated reg file for power calculations
-gpgpu_clock_gated_lanes                    0 # enable clock gated lanes for power calculations
-gpgpu_shader_registers                32768 # Number of registers per shader core. Limits number of concurrent CTAs. (default 8192)
-gpgpu_shader_cta                       8 # Maximum number of concurrent CTAs in shader (default 8)
-gpgpu_num_cta_barriers                   16 # Maximum number of named barriers per CTA (default 16)
-gpgpu_n_clusters                      15 # number of processing clusters
-gpgpu_n_cores_per_cluster                    1 # number of simd cores per cluster
-gpgpu_n_cluster_ejection_buffer_size                    8 # number of packets in ejection buffer
-gpgpu_n_ldst_response_buffer_size                    2 # number of response packets in ld/st unit ejection buffer
-gpgpu_shmem_size                   16384 # Size of shared memory per shader core (default 16kB)
-gpgpu_shmem_size                   49152 # Size of shared memory per shader core (default 16kB)
-gpgpu_shmem_size_PrefL1                16384 # Size of shared memory per shader core (default 16kB)
-gpgpu_shmem_size_PrefShared                16384 # Size of shared memory per shader core (default 16kB)
-gpgpu_shmem_num_banks                   32 # Number of banks in the shared memory in each shader core (default 16)
-gpgpu_shmem_limited_broadcast                    0 # Limit shared memory to do one broadcast per cycle (default on)
-gpgpu_shmem_warp_parts                    1 # Number of portions a warp is divided into for shared memory bank conflict check 
-gpgpu_warpdistro_shader                   -1 # Specify which shader core to collect the warp size distribution from
-gpgpu_warp_issue_shader                    0 # Specify which shader core to collect the warp issue distribution from
-gpgpu_local_mem_map                    1 # Mapping from local memory space address to simulated GPU physical address space (default = enabled)
-gpgpu_num_reg_banks                   16 # Number of register banks (default = 8)
-gpgpu_reg_bank_use_warp_id                    0 # Use warp ID in mapping registers to banks (default = off)
-gpgpu_operand_collector_num_units_sp                    6 # number of collector units (default = 4)
-gpgpu_operand_collector_num_units_sfu                    8 # number of collector units (default = 4)
-gpgpu_operand_collector_num_units_mem                    2 # number of collector units (default = 2)
-gpgpu_operand_collector_num_units_gen                    0 # number of collector units (default = 0)
-gpgpu_operand_collector_num_in_ports_sp                    2 # number of collector unit in ports (default = 1)
-gpgpu_operand_collector_num_in_ports_sfu                    1 # number of collector unit in ports (default = 1)
-gpgpu_operand_collector_num_in_ports_mem                    1 # number of collector unit in ports (default = 1)
-gpgpu_operand_collector_num_in_ports_gen                    0 # number of collector unit in ports (default = 0)
-gpgpu_operand_collector_num_out_ports_sp                    2 # number of collector unit in ports (default = 1)
-gpgpu_operand_collector_num_out_ports_sfu                    1 # number of collector unit in ports (default = 1)
-gpgpu_operand_collector_num_out_ports_mem                    1 # number of collector unit in ports (default = 1)
-gpgpu_operand_collector_num_out_ports_gen                    0 # number of collector unit in ports (default = 0)
-gpgpu_coalesce_arch                   13 # Coalescing arch (default = 13, anything else is off for now)
-gpgpu_num_sched_per_core                    2 # Number of warp schedulers per core
-gpgpu_max_insn_issue_per_warp                    1 # Max number of instructions that can be issued per warp in one cycle by scheduler
-gpgpu_simt_core_sim_order                    1 # Select the simulation order of cores in a cluster (0=Fix, 1=Round-Robin)
-gpgpu_pipeline_widths        2,1,1,2,1,1,2 # Pipeline widths ID_OC_SP,ID_OC_SFU,ID_OC_MEM,OC_EX_SP,OC_EX_SFU,OC_EX_MEM,EX_WB
-gpgpu_num_sp_units                     2 # Number of SP units (default=1)
-gpgpu_num_sfu_units                    1 # Number of SF units (default=1)
-gpgpu_num_mem_units                    1 # Number if ldst units (default=1) WARNING: not hooked up to anything
-gpgpu_scheduler                      gto # Scheduler configuration: < lrr | gto | two_level_active > If two_level_active:<num_active_warps>:<inner_prioritization>:<outer_prioritization>For complete list of prioritization values see shader.h enum scheduler_prioritization_typeDefault: gto
-gpgpu_dram_scheduler                    1 # 0 = fifo, 1 = FR-FCFS (defaul)
-gpgpu_dram_partition_queues              8:8:8:8 # i2$:$2d:d2$:$2i
-l2_ideal                               0 # Use a ideal L2 cache that always hit
-gpgpu_cache:dl2     64:128:8,L:B:m:W:L,A:32:4,4:0,32 # unified banked L2 data cache config  {<nsets>:<bsize>:<assoc>,<rep>:<wr>:<alloc>:<wr_alloc>,<mshr>:<N>:<merge>,<mq>}
-gpgpu_cache:dl2_texture_only                    0 # L2 cache used for texture only
-gpgpu_n_mem                            6 # number of memory modules (e.g. memory controllers) in gpu
-gpgpu_n_sub_partition_per_mchannel                    2 # number of memory subpartition in each memory module
-gpgpu_n_mem_per_ctrlr                    2 # number of memory chips per memory controller
-gpgpu_memlatency_stat                   14 # track and display latency statistics 0x2 enables MC, 0x4 enables queue logs
-gpgpu_frfcfs_dram_sched_queue_size                   16 # 0 = unlimited (default); # entries per chip
-gpgpu_dram_return_queue_size                  116 # 0 = unlimited (default); # entries per chip
-gpgpu_dram_buswidth                    8 # default = 4 bytes (8 bytes per cycle at DDR)
-gpgpu_dram_burst_length                    8 # Burst length of each DRAM request (default = 4 data bus cycle)
-dram_data_command_freq_ratio                    4 # Frequency ratio between DRAM data bus and command bus (default = 2 times, i.e. DDR)
-gpgpu_dram_timing_opt nbk=16:CCD=2:RRD=6:RCD=12:RAS=28:RP=12:RC=40: CL=12:WL=4:CDLR=5:WR=12:nbkgrp=4:CCDL=3:RTPL=2 # DRAM timing parameters = {nbk:tCCD:tRRD:tRCD:tRAS:tRP:tRC:CL:WL:tCDLR:tWR:nbkgrp:tCCDL:tRTPL}
-rop_latency                          120 # ROP queue latency (default 85)
-dram_latency                         100 # DRAM latency (default 30)
-gpgpu_mem_addr_mapping dramid@8;00000000.00000000.00000000.00000000.0000RRRR.RRRRRRRR.BBBCCCCB.CCSSSSSS # mapping memory address to dram model {dramid@<start bit>;<memory address map>}
-gpgpu_mem_addr_test                    0 # run sweep test to check address mapping for aliased address
-gpgpu_mem_address_mask                    1 # 0 = old addressing mask, 1 = new addressing mask, 2 = new add. mask + flipped bank sel and chip sel bits
-gpuwattch_xml_file  gpuwattch_gtx480.xml # GPUWattch XML file
-power_simulation_enabled                    0 # Turn on power simulator (1=On, 0=Off)
-power_per_cycle_dump                    0 # Dump detailed power output each cycle
-power_trace_enabled                    0 # produce a file for the power trace (1=On, 0=Off)
-power_trace_zlevel                     6 # Compression level of the power trace output log (0=no comp, 9=highest)
-steady_power_levels_enabled                    0 # produce a file for the steady power levels (1=On, 0=Off)
-steady_state_definition                  8:4 # allowed deviation:number of samples
-gpgpu_max_cycle                        0 # terminates gpu simulation early (0 = no limit)
-gpgpu_max_insn                         0 # terminates gpu simulation early (0 = no limit)
-gpgpu_max_cta                          0 # terminates gpu simulation early (0 = no limit)
-gpgpu_runtime_stat                   500 # display runtime statistics such as dram utilization {<freq>:<flag>}
-liveness_message_freq                    1 # Minimum number of seconds between simulation liveness messages (0 = always print)
-gpgpu_flush_l1_cache                    0 # Flush L1 cache at the end of each kernel call
-gpgpu_flush_l2_cache                    0 # Flush L2 cache at the end of each kernel call
-gpgpu_deadlock_detect                    1 # Stop the simulation at deadlock (1=on (default), 0=off)
-gpgpu_ptx_instruction_classification                    0 # if enabled will classify ptx instruction types per kernel (Max 255 kernels now)
-gpgpu_ptx_sim_mode                     0 # Select between Performance (default) or Functional simulation (1)
-gpgpu_clock_domains 700.0:700.0:700.0:924.0 # Clock Domain Frequencies in MhZ {<Core Clock>:<ICNT Clock>:<L2 Clock>:<DRAM Clock>}
-gpgpu_max_concurrent_kernel                    8 # maximum kernels that can run concurrently on GPU
-gpgpu_cflog_interval                    0 # Interval between each snapshot in control flow logger
-visualizer_enabled                     0 # Turn on visualizer output (1=On, 0=Off)
-visualizer_outputfile                 NULL # Specifies the output log file for visualizer
-visualizer_zlevel                      6 # Compression level of the visualizer output log (0=no comp, 9=highest)
-trace_enabled                          0 # Turn on traces
-trace_components                    none # comma seperated list of traces to enable. Complete list found in trace_streams.tup. Default none
-trace_sampling_core                    0 # The core which is printed using CORE_DPRINTF. Default 0
-trace_sampling_memory_partition                   -1 # The memory partition which is printed using MEMPART_DPRINTF. Default -1 (i.e. all)
-enable_ptx_file_line_stats                    1 # Turn on PTX source line statistic profiling. (1 = On)
-ptx_line_stats_filename gpgpu_inst_stats.txt # Output file for PTX source line statistics.
-save_embedded_ptx                      0 # saves ptx files embedded in binary as <n>.ptx
-keep                                   0 # keep intermediate files created by GPGPU-Sim when interfacing with external programs
-gpgpu_ptx_save_converted_ptxplus                    0 # Saved converted ptxplus to a file
-ptx_opcode_latency_int         4,13,4,5,145 # Opcode latencies for integers <ADD,MAX,MUL,MAD,DIV>Default 1,1,19,25,145
-ptx_opcode_latency_fp          4,13,4,5,39 # Opcode latencies for single precision floating points <ADD,MAX,MUL,MAD,DIV>Default 1,1,1,1,30
-ptx_opcode_latency_dp         8,19,8,8,330 # Opcode latencies for double precision floating points <ADD,MAX,MUL,MAD,DIV>Default 8,8,8,8,335
-ptx_opcode_initiation_int            1,2,2,1,8 # Opcode initiation intervals for integers <ADD,MAX,MUL,MAD,DIV>Default 1,1,4,4,32
-ptx_opcode_initiation_fp            1,2,1,1,4 # Opcode initiation intervals for single precision floating points <ADD,MAX,MUL,MAD,DIV>Default 1,1,1,1,5
-ptx_opcode_initiation_dp         8,16,8,8,130 # Opcode initiation intervals for double precision floating points <ADD,MAX,MUL,MAD,DIV>Default 8,8,8,8,130
DRAM Timing Options:
nbk                                    16 # number of banks
CCD                                     2 # column to column delay
RRD                                     6 # minimal delay between activation of rows in different banks
RCD                                    12 # row to column delay
RAS                                    28 # time needed to activate row
RP                                     12 # time needed to precharge (deactivate) row
RC                                     40 # row cycle time
CDLR                                    5 # switching from write to read (changes tWTR)
WR                                     12 # last data-in to row precharge
CL                                     12 # CAS latency
WL                                      4 # Write latency
nbkgrp                                  4 # number of bank groups
CCDL                                    3 # column to column delay between accesses to different bank groups
RTPL                                    2 # read to precharge delay between accesses to different bank groups
Total number of memory sub partition = 12
addr_dec_mask[CHIP]  = 0000000000000000 	high:64 low:0
addr_dec_mask[BK]    = 000000000000e100 	high:16 low:8
addr_dec_mask[ROW]   = 000000000fff0000 	high:28 low:16
addr_dec_mask[COL]   = 0000000000001eff 	high:13 low:0
addr_dec_mask[BURST] = 000000000000003f 	high:6 low:0
sub_partition_id_mask = 0000000000000100
GPGPU-Sim uArch: clock freqs: 700000000.000000:700000000.000000:700000000.000000:924000000.000000
GPGPU-Sim uArch: clock periods: 0.00000000142857142857:0.00000000142857142857:0.00000000142857142857:0.00000000108225108225
*** Initializing Memory Statistics ***
GPGPU-Sim uArch: interconnect node map (shaderID+MemID to icntID)
GPGPU-Sim uArch: Memory nodes ID start from index: 15
GPGPU-Sim uArch:    0   1   2   3   4
GPGPU-Sim uArch:    5   6   7   8   9
GPGPU-Sim uArch:   10  11  12  13  14
GPGPU-Sim uArch:   15  16  17  18  19
GPGPU-Sim uArch:   20  21  22  23  24
GPGPU-Sim uArch:   25  26
GPGPU-Sim uArch: interconnect node reverse map (icntID to shaderID+MemID)
GPGPU-Sim uArch: Memory nodes start from ID: 15
GPGPU-Sim uArch:    0   1   2   3   4
GPGPU-Sim uArch:    5   6   7   8   9
GPGPU-Sim uArch:   10  11  12  13  14
GPGPU-Sim uArch:   15  16  17  18  19
GPGPU-Sim uArch:   20  21  22  23  24
GPGPU-Sim uArch:   25  26
316bcbff5f8f022bb22b20bb4721e93e  /sciclone/data20/adwait/applications/benchmarks/CUDA/RAY/gpgpu_ptx_sim__RAY
GPGPU-Sim uArch: performance model initialization complete.
GPGPU-Sim PTX: __cudaRegisterFatBinary, fat_cubin_handle = 1, filename=rayTracing.cu
self exe links to: /sciclone/data20/adwait/applications/benchmarks/CUDA/RAY/gpgpu_ptx_sim__RAY
Running md5sum using "md5sum /sciclone/data20/adwait/applications/benchmarks/CUDA/RAY/gpgpu_ptx_sim__RAY "
Parsing file _cuobjdump_complete_output_2aH2xu
######### cuobjdump parser ########
## Adding new section ELF
Adding arch: sm_20
Adding identifier: rayTracing.cu
## Adding new section PTX
Adding ptx filename: _cuobjdump_1.ptx
Adding arch: sm_20
Adding identifier: rayTracing.cu
Done parsing!!!
GPGPU-Sim PTX: __cudaRegisterFunction _Z6renderPjP4Nodejjff : hostFun 0x0x40ce13, fat_cubin_handle = 1
GPGPU-Sim PTX: allocating stack frame region for .param "__cudaretf__Zmi6float3S_" from 0x0 to 0xc
GPGPU-Sim PTX: allocating stack frame region for .param "__cudaparmf1__Zmi6float3S_" from 0xc to 0x18
GPGPU-Sim PTX: allocating stack frame region for .param "__cudaparmf2__Zmi6float3S_" from 0x18 to 0x24
GPGPU-Sim PTX: allocating stack frame region for .param "__cudaretf__Z9normalize6float3" from 0x0 to 0xc
GPGPU-Sim PTX: allocating stack frame region for .param "__cudaparmf1__Z9normalize6float3" from 0xc to 0x18
GPGPU-Sim PTX: allocating stack frame region for .param "__cudaretf__Z18intersectionSphere5Rayon6float3f" from 0x0 to 0x4
GPGPU-Sim PTX: allocating stack frame region for .param "__cudaparmf1__Z18intersectionSphere5Rayon6float3f" from 0x4 to 0x1c
GPGPU-Sim PTX: allocating stack frame region for .param "__cudaparmf2__Z18intersectionSphere5Rayon6float3f" from 0x1c to 0x28
GPGPU-Sim PTX: allocating stack frame region for .param "__cudaparmf3__Z18intersectionSphere5Rayon6float3f" from 0x28 to 0x2c
GPGPU-Sim PTX: allocating stack frame region for .param "__cudaretf__Z16intersectionPlan5Rayon6float3S0_" from 0x0 to 0x4
GPGPU-Sim PTX: allocating stack frame region for .param "__cudaparmf1__Z16intersectionPlan5Rayon6float3S0_" from 0x4 to 0x1c
GPGPU-Sim PTX: allocating stack frame region for .param "__cudaparmf2__Z16intersectionPlan5Rayon6float3S0_" from 0x1c to 0x28
GPGPU-Sim PTX: allocating stack frame region for .param "__cudaparmf3__Z16intersectionPlan5Rayon6float3S0_" from 0x28 to 0x34
GPGPU-Sim PTX: allocating stack frame region for .param "__cudaretf__Z10getNormale6float3S_" from 0x0 to 0xc
GPGPU-Sim PTX: allocating stack frame region for .param "__cudaparmf1__Z10getNormale6float3S_" from 0xc to 0x18
GPGPU-Sim PTX: allocating stack frame region for .param "__cudaparmf2__Z10getNormale6float3S_" from 0x18 to 0x24
GPGPU-Sim PTX: allocating stack frame region for .param "__cudaretf__Z11getNormaleP6float3" from 0x0 to 0xc
GPGPU-Sim PTX: allocating stack frame region for .param "__cudaparmf1__Z11getNormaleP6float3" from 0xc to 0x18
GPGPU-Sim PTX: allocating stack frame region for .param "__cudaretf__Z14rgbaFloatToInt6float4" from 0x0 to 0x4
GPGPU-Sim PTX: allocating stack frame region for .param "__cudaparmf1__Z14rgbaFloatToInt6float4" from 0x4 to 0x14
GPGPU-Sim PTX: allocating stack frame region for .param "__cudaretf__Z12notShadowRayP4Node6float3S1_f" from 0x0 to 0x4
GPGPU-Sim PTX: allocating stack frame region for .param "__cudaparmf1__Z12notShadowRayP4Node6float3S1_f" from 0x4 to 0xc
GPGPU-Sim PTX: allocating stack frame region for .param "__cudaparmf2__Z12notShadowRayP4Node6float3S1_f" from 0xc to 0x18
GPGPU-Sim PTX: allocating stack frame region for .param "__cudaparmf3__Z12notShadowRayP4Node6float3S1_f" from 0x18 to 0x24
GPGPU-Sim PTX: allocating stack frame region for .param "__cudaparmf4__Z12notShadowRayP4Node6float3S1_f" from 0x24 to 0x28
GPGPU-Sim PTX: allocating stack frame region for .param "__cudaretf__Z15float2int_pow20f" from 0x0 to 0x4
GPGPU-Sim PTX: allocating stack frame region for .param "__cudaparmf1__Z15float2int_pow20f" from 0x4 to 0x8
GPGPU-Sim PTX: allocating stack frame region for .param "__cudaretf__Z15float2int_pow50f" from 0x0 to 0x4
GPGPU-Sim PTX: allocating stack frame region for .param "__cudaparmf1__Z15float2int_pow50f" from 0x4 to 0x8
GPGPU-Sim PTX: allocating stack frame region for .param "__cudaparmf1__ZN4dim3C1Ejjj" from 0x0 to 0x8
GPGPU-Sim PTX: allocating stack frame region for .param "__cudaparmf2__ZN4dim3C1Ejjj" from 0x8 to 0xc
GPGPU-Sim PTX: allocating stack frame region for .param "__cudaparmf3__ZN4dim3C1Ejjj" from 0xc to 0x10
GPGPU-Sim PTX: allocating stack frame region for .param "__cudaparmf4__ZN4dim3C1Ejjj" from 0x10 to 0x14
GPGPU-Sim PTX: instruction assembly for function '_Zmi6float3S_'...   done.
GPGPU-Sim PTX: finding reconvergence points for '_Zmi6float3S_'...
GPGPU-Sim PTX: Finding dominators for '_Zmi6float3S_'...
GPGPU-Sim PTX: Finding immediate dominators for '_Zmi6float3S_'...
GPGPU-Sim PTX: Finding postdominators for '_Zmi6float3S_'...
GPGPU-Sim PTX: Finding immediate postdominators for '_Zmi6float3S_'...
GPGPU-Sim PTX: pre-decoding instructions for '_Zmi6float3S_'...
GPGPU-Sim PTX: reconvergence points for _Zmi6float3S_...
GPGPU-Sim PTX: ... end of reconvergence points for _Zmi6float3S_
GPGPU-Sim PTX: ... done pre-decoding instructions for '_Zmi6float3S_'.
GPGPU-Sim PTX: instruction assembly for function '_Z9normalize6float3'...   done.
GPGPU-Sim PTX: finding reconvergence points for '_Z9normalize6float3'...
GPGPU-Sim PTX: Finding dominators for '_Z9normalize6float3'...
GPGPU-Sim PTX: Finding immediate dominators for '_Z9normalize6float3'...
GPGPU-Sim PTX: Finding postdominators for '_Z9normalize6float3'...
GPGPU-Sim PTX: Finding immediate postdominators for '_Z9normalize6float3'...
GPGPU-Sim PTX: pre-decoding instructions for '_Z9normalize6float3'...
GPGPU-Sim PTX: reconvergence points for _Z9normalize6float3...
GPGPU-Sim PTX: ... end of reconvergence points for _Z9normalize6float3
GPGPU-Sim PTX: ... done pre-decoding instructions for '_Z9normalize6float3'.
GPGPU-Sim PTX: instruction assembly for function '_Z18intersectionSphere5Rayon6float3f'...   done.
GPGPU-Sim PTX: finding reconvergence points for '_Z18intersectionSphere5Rayon6float3f'...
GPGPU-Sim PTX: Finding dominators for '_Z18intersectionSphere5Rayon6float3f'...
GPGPU-Sim PTX: Finding immediate dominators for '_Z18intersectionSphere5Rayon6float3f'...
GPGPU-Sim PTX: Finding postdominators for '_Z18intersectionSphere5Rayon6float3f'...
GPGPU-Sim PTX: Finding immediate postdominators for '_Z18intersectionSphere5Rayon6float3f'...
GPGPU-Sim PTX: pre-decoding instructions for '_Z18intersectionSphere5Rayon6float3f'...
GPGPU-Sim PTX: reconvergence points for _Z18intersectionSphere5Rayon6float3f...
GPGPU-Sim PTX:  1 (potential) branch divergence @  PC=0x250 (_1.ptx:173) @%p2 bra $Lt_2_3074;
GPGPU-Sim PTX:    immediate post dominator      @  PC=0x2c0 (_1.ptx:193) mov.f32 %f39, %f32;
GPGPU-Sim PTX:  2 (potential) branch divergence @  PC=0x260 (_1.ptx:175) bra.uni $Lt_2_2818;
GPGPU-Sim PTX:    immediate post dominator      @  PC=0x2c0 (_1.ptx:193) mov.f32 %f39, %f32;
GPGPU-Sim PTX:  3 (potential) branch divergence @  PC=0x280 (_1.ptx:180) @!%p3 bra $Lt_2_3586;
GPGPU-Sim PTX:    immediate post dominator      @  PC=0x2c0 (_1.ptx:193) mov.f32 %f39, %f32;
GPGPU-Sim PTX:  4 (potential) branch divergence @  PC=0x290 (_1.ptx:182) bra.uni $Lt_2_3330;
GPGPU-Sim PTX:    immediate post dominator      @  PC=0x2c0 (_1.ptx:193) mov.f32 %f39, %f32;
GPGPU-Sim PTX: ... end of reconvergence points for _Z18intersectionSphere5Rayon6float3f
GPGPU-Sim PTX: ... done pre-decoding instructions for '_Z18intersectionSphere5Rayon6float3f'.
GPGPU-Sim PTX: instruction assembly for function '_Z16intersectionPlan5Rayon6float3S0_'...   done.
GPGPU-Sim PTX: finding reconvergence points for '_Z16intersectionPlan5Rayon6float3S0_'...
GPGPU-Sim PTX: Finding dominators for '_Z16intersectionPlan5Rayon6float3S0_'...
GPGPU-Sim PTX: Finding immediate dominators for '_Z16intersectionPlan5Rayon6float3S0_'...
GPGPU-Sim PTX: Finding postdominators for '_Z16intersectionPlan5Rayon6float3S0_'...
GPGPU-Sim PTX: Finding immediate postdominators for '_Z16intersectionPlan5Rayon6float3S0_'...
GPGPU-Sim PTX: pre-decoding instructions for '_Z16intersectionPlan5Rayon6float3S0_'...
GPGPU-Sim PTX: reconvergence points for _Z16intersectionPlan5Rayon6float3S0_...
GPGPU-Sim PTX:  1 (potential) branch divergence @  PC=0x320 (_1.ptx:214) @!%p1 bra $Lt_3_2050;
GPGPU-Sim PTX:    immediate post dominator      @  PC=0x368 (_1.ptx:227) mov.f32 %f14, %f9;
GPGPU-Sim PTX:  2 (potential) branch divergence @  PC=0x330 (_1.ptx:216) bra.uni $Lt_3_1794;
GPGPU-Sim PTX:    immediate post dominator      @  PC=0x368 (_1.ptx:227) mov.f32 %f14, %f9;
GPGPU-Sim PTX: ... end of reconvergence points for _Z16intersectionPlan5Rayon6float3S0_
GPGPU-Sim PTX: ... done pre-decoding instructions for '_Z16intersectionPlan5Rayon6float3S0_'.
GPGPU-Sim PTX: instruction assembly for function '_Z10getNormale6float3S_'...   done.
GPGPU-Sim PTX: finding reconvergence points for '_Z10getNormale6float3S_'...
GPGPU-Sim PTX: Finding dominators for '_Z10getNormale6float3S_'...
GPGPU-Sim PTX: Finding immediate dominators for '_Z10getNormale6float3S_'...
GPGPU-Sim PTX: Finding postdominators for '_Z10getNormale6float3S_'...
GPGPU-Sim PTX: Finding immediate postdominators for '_Z10getNormale6float3S_'...
GPGPU-Sim PTX: pre-decoding instructions for '_Z10getNormale6float3S_'...
GPGPU-Sim PTX: reconvergence points for _Z10getNormale6float3S_...
GPGPU-Sim PTX: ... end of reconvergence points for _Z10getNormale6float3S_
GPGPU-Sim PTX: ... done pre-decoding instructions for '_Z10getNormale6float3S_'.
GPGPU-Sim PTX: instruction assembly for function '_Z11getNormaleP6float3'...   done.
GPGPU-Sim PTX: finding reconvergence points for '_Z11getNormaleP6float3'...
GPGPU-Sim PTX: Finding dominators for '_Z11getNormaleP6float3'...
GPGPU-Sim PTX: Finding immediate dominators for '_Z11getNormaleP6float3'...
GPGPU-Sim PTX: Finding postdominators for '_Z11getNormaleP6float3'...
GPGPU-Sim PTX: Finding immediate postdominators for '_Z11getNormaleP6float3'...
GPGPU-Sim PTX: pre-decoding instructions for '_Z11getNormaleP6float3'...
GPGPU-Sim PTX: reconvergence points for _Z11getNormaleP6float3...
GPGPU-Sim PTX: ... end of reconvergence points for _Z11getNormaleP6float3
GPGPU-Sim PTX: ... done pre-decoding instructions for '_Z11getNormaleP6float3'.
GPGPU-Sim PTX: instruction assembly for function '_Z14rgbaFloatToInt6float4'...   done.
GPGPU-Sim PTX: finding reconvergence points for '_Z14rgbaFloatToInt6float4'...
GPGPU-Sim PTX: Finding dominators for '_Z14rgbaFloatToInt6float4'...
GPGPU-Sim PTX: Finding immediate dominators for '_Z14rgbaFloatToInt6float4'...
GPGPU-Sim PTX: Finding postdominators for '_Z14rgbaFloatToInt6float4'...
GPGPU-Sim PTX: Finding immediate postdominators for '_Z14rgbaFloatToInt6float4'...
GPGPU-Sim PTX: pre-decoding instructions for '_Z14rgbaFloatToInt6float4'...
GPGPU-Sim PTX: reconvergence points for _Z14rgbaFloatToInt6float4...
GPGPU-Sim PTX: ... end of reconvergence points for _Z14rgbaFloatToInt6float4
GPGPU-Sim PTX: ... done pre-decoding instructions for '_Z14rgbaFloatToInt6float4'.
GPGPU-Sim PTX: allocating global region for "cnode" from 0x100 to 0x1a0 (global memory space)
GPGPU-Sim PTX: instruction assembly for function '_Z12notShadowRayP4Node6float3S1_f'...   done.
GPGPU-Sim PTX: finding reconvergence points for '_Z12notShadowRayP4Node6float3S1_f'...
GPGPU-Sim PTX: Finding dominators for '_Z12notShadowRayP4Node6float3S1_f'...
GPGPU-Sim PTX: Finding immediate dominators for '_Z12notShadowRayP4Node6float3S1_f'...
GPGPU-Sim PTX: Finding postdominators for '_Z12notShadowRayP4Node6float3S1_f'...
GPGPU-Sim PTX: Finding immediate postdominators for '_Z12notShadowRayP4Node6float3S1_f'...
GPGPU-Sim PTX: pre-decoding instructions for '_Z12notShadowRayP4Node6float3S1_f'...
GPGPU-Sim PTX: reconvergence points for _Z12notShadowRayP4Node6float3S1_f...
GPGPU-Sim PTX:  1 (potential) branch divergence @  PC=0x638 (_1.ptx:364) @%p1 bra $Lt_7_8450;
GPGPU-Sim PTX:    immediate post dominator      @  PC=0x828 (_1.ptx:441) mov.f32 %f58, 0f00000000;    // 0
GPGPU-Sim PTX:  2 (potential) branch divergence @  PC=0x658 (_1.ptx:369) @!%p2 bra $Lt_7_8962;
GPGPU-Sim PTX:    immediate post dominator      @  PC=0x6b8 (_1.ptx:385) mov.f32 %f28, %f20;
GPGPU-Sim PTX:  3 (potential) branch divergence @  PC=0x668 (_1.ptx:371) bra.uni $Lt_7_8706;
GPGPU-Sim PTX:    immediate post dominator      @  PC=0x6b8 (_1.ptx:385) mov.f32 %f28, %f20;
GPGPU-Sim PTX:  4 (potential) branch divergence @  PC=0x6c0 (_1.ptx:386) bra.uni $Lt_7_8194;
GPGPU-Sim PTX:    immediate post dominator      @  PC=0x828 (_1.ptx:441) mov.f32 %f58, 0f00000000;    // 0
GPGPU-Sim PTX:  5 (potential) branch divergence @  PC=0x7b0 (_1.ptx:418) @%p5 bra $Lt_7_9474;
GPGPU-Sim PTX:    immediate post dominator      @  PC=0x820 (_1.ptx:438) mov.f32 %f28, %f51;
GPGPU-Sim PTX:  6 (potential) branch divergence @  PC=0x7c0 (_1.ptx:420) bra.uni $Lt_7_9730;
GPGPU-Sim PTX:    immediate post dominator      @  PC=0x820 (_1.ptx:438) mov.f32 %f28, %f51;
GPGPU-Sim PTX:  7 (potential) branch divergence @  PC=0x7e0 (_1.ptx:425) @!%p6 bra $Lt_7_9986;
GPGPU-Sim PTX:    immediate post dominator      @  PC=0x820 (_1.ptx:438) mov.f32 %f28, %f51;
GPGPU-Sim PTX:  8 (potential) branch divergence @  PC=0x7f0 (_1.ptx:427) bra.uni $Lt_7_9730;
GPGPU-Sim PTX:    immediate post dominator      @  PC=0x820 (_1.ptx:438) mov.f32 %f28, %f51;
GPGPU-Sim PTX:  9 (potential) branch divergence @  PC=0x838 (_1.ptx:443) @!%p7 bra $Lt_7_10242;
GPGPU-Sim PTX:    immediate post dominator      @  PC=0x8e8 (_1.ptx:468) add.s32 %r1, %r1, 1;
GPGPU-Sim PTX: 10 (potential) branch divergence @  PC=0x8d8 (_1.ptx:463) @!%p8 bra $Lt_7_10242;
GPGPU-Sim PTX:    immediate post dominator      @  PC=0x8e8 (_1.ptx:468) add.s32 %r1, %r1, 1;
GPGPU-Sim PTX: 11 (potential) branch divergence @  PC=0x908 (_1.ptx:472) @%p9 bra $Lt_7_10754;
GPGPU-Sim PTX:    immediate post dominator      @  PC=0x960 (_1.ptx:486) selp.s32 %r10, 1, 0, %p11;
GPGPU-Sim PTX: 12 (potential) branch divergence @  PC=0x930 (_1.ptx:477) @%p10 bra $L_7_7170;
GPGPU-Sim PTX:    immediate post dominator      @  PC=0x960 (_1.ptx:486) selp.s32 %r10, 1, 0, %p11;
GPGPU-Sim PTX: 13 (potential) branch divergence @  PC=0x938 (_1.ptx:478) bra.uni $L_7_7938;
GPGPU-Sim PTX:    immediate post dominator      @  PC=0x960 (_1.ptx:486) selp.s32 %r10, 1, 0, %p11;
GPGPU-Sim PTX: ... end of reconvergence points for _Z12notShadowRayP4Node6float3S1_f
GPGPU-Sim PTX: ... done pre-decoding instructions for '_Z12notShadowRayP4Node6float3S1_f'.
GPGPU-Sim PTX: instruction assembly for function '_Z15float2int_pow20f'...   done.
GPGPU-Sim PTX: finding reconvergence points for '_Z15float2int_pow20f'...
GPGPU-Sim PTX: Finding dominators for '_Z15float2int_pow20f'...
GPGPU-Sim PTX: Finding immediate dominators for '_Z15float2int_pow20f'...
GPGPU-Sim PTX: Finding postdominators for '_Z15float2int_pow20f'...
GPGPU-Sim PTX: Finding immediate postdominators for '_Z15float2int_pow20f'...
GPGPU-Sim PTX: pre-decoding instructions for '_Z15float2int_pow20f'...
GPGPU-Sim PTX: reconvergence points for _Z15float2int_pow20f...
GPGPU-Sim PTX: ... end of reconvergence points for _Z15float2int_pow20f
GPGPU-Sim PTX: ... done pre-decoding instructions for '_Z15float2int_pow20f'.
GPGPU-Sim PTX: instruction assembly for function '_Z15float2int_pow50f'...   done.
GPGPU-Sim PTX: finding reconvergence points for '_Z15float2int_pow50f'...
GPGPU-Sim PTX: Finding dominators for '_Z15float2int_pow50f'...
GPGPU-Sim PTX: Finding immediate dominators for '_Z15float2int_pow50f'...
GPGPU-Sim PTX: Finding postdominators for '_Z15float2int_pow50f'...
GPGPU-Sim PTX: Finding immediate postdominators for '_Z15float2int_pow50f'...
GPGPU-Sim PTX: pre-decoding instructions for '_Z15float2int_pow50f'...
GPGPU-Sim PTX: reconvergence points for _Z15float2int_pow50f...
GPGPU-Sim PTX: ... end of reconvergence points for _Z15float2int_pow50f
GPGPU-Sim PTX: ... done pre-decoding instructions for '_Z15float2int_pow50f'.
GPGPU-Sim PTX: allocating constant region for "MView" from 0x200 to 0x230 (global memory space) 1
GPGPU-Sim PTX: allocating stack frame region for .local "__cuda___cuda_local_var_35463_9_non_const_pile_32240" from 0x0 to 0x50
GPGPU-Sim PTX: instruction assembly for function '_Z6renderPjP4Nodejjff'...   done.
GPGPU-Sim PTX: finding reconvergence points for '_Z6renderPjP4Nodejjff'...
GPGPU-Sim PTX: Finding dominators for '_Z6renderPjP4Nodejjff'...
GPGPU-Sim PTX: Finding immediate dominators for '_Z6renderPjP4Nodejjff'...
GPGPU-Sim PTX: Finding postdominators for '_Z6renderPjP4Nodejjff'...
GPGPU-Sim PTX: Finding immediate postdominators for '_Z6renderPjP4Nodejjff'...
GPGPU-Sim PTX: pre-decoding instructions for '_Z6renderPjP4Nodejjff'...
GPGPU-Sim PTX: reconvergence points for _Z6renderPjP4Nodejjff...
GPGPU-Sim PTX:  1 (potential) branch divergence @  PC=0xdb0 (_1.ptx:663) @%p1 bra $Lt_10_44034;
GPGPU-Sim PTX:    immediate post dominator      @  PC=0x2370 (_1.ptx:1495) exit;
GPGPU-Sim PTX:  2 (potential) branch divergence @  PC=0x1028 (_1.ptx:751) @%p2 bra $Lt_10_45570;
GPGPU-Sim PTX:    immediate post dominator      @  PC=0x11b8 (_1.ptx:815) mov.f32 %f108, 0f00000000;   // 0
GPGPU-Sim PTX:  3 (potential) branch divergence @  PC=0x1048 (_1.ptx:756) @!%p3 bra $Lt_10_46082;
GPGPU-Sim PTX:    immediate post dominator      @  PC=0x1090 (_1.ptx:769) mov.f32 %f87, %f82;
GPGPU-Sim PTX:  4 (potential) branch divergence @  PC=0x1058 (_1.ptx:758) bra.uni $Lt_10_45826;
GPGPU-Sim PTX:    immediate post dominator      @  PC=0x1090 (_1.ptx:769) mov.f32 %f87, %f82;
GPGPU-Sim PTX:  5 (potential) branch divergence @  PC=0x1098 (_1.ptx:770) bra.uni $Lt_10_45314;
GPGPU-Sim PTX:    immediate post dominator      @  PC=0x11b8 (_1.ptx:815) mov.f32 %f108, 0f00000000;   // 0
GPGPU-Sim PTX:  6 (potential) branch divergence @  PC=0x1140 (_1.ptx:793) @%p6 bra $Lt_10_46594;
GPGPU-Sim PTX:    immediate post dominator      @  PC=0x11b0 (_1.ptx:813) mov.f32 %f87, %f101;
GPGPU-Sim PTX:  7 (potential) branch divergence @  PC=0x1150 (_1.ptx:795) bra.uni $Lt_10_46850;
GPGPU-Sim PTX:    immediate post dominator      @  PC=0x11b0 (_1.ptx:813) mov.f32 %f87, %f101;
GPGPU-Sim PTX:  8 (potential) branch divergence @  PC=0x1170 (_1.ptx:800) @!%p7 bra $Lt_10_47106;
GPGPU-Sim PTX:    immediate post dominator      @  PC=0x11b0 (_1.ptx:813) mov.f32 %f87, %f101;
GPGPU-Sim PTX:  9 (potential) branch divergence @  PC=0x1180 (_1.ptx:802) bra.uni $Lt_10_46850;
GPGPU-Sim PTX:    immediate post dominator      @  PC=0x11b0 (_1.ptx:813) mov.f32 %f87, %f101;
GPGPU-Sim PTX: 10 (potential) branch divergence @  PC=0x11f8 (_1.ptx:823) @%p8 bra $Lt_10_47362;
GPGPU-Sim PTX:    immediate post dominator      @  PC=0x1210 (_1.ptx:829) add.s32 %r25, %r25, 1;
GPGPU-Sim PTX: 11 (potential) branch divergence @  PC=0x1230 (_1.ptx:833) @%p9 bra $Lt_10_45058;
GPGPU-Sim PTX:    immediate post dominator      @  PC=0x1238 (_1.ptx:834) mov.f32 %f109, 0f00000000;   // 0
GPGPU-Sim PTX: 12 (potential) branch divergence @  PC=0x1280 (_1.ptx:843) @%p10 bra $Lt_10_48130;
GPGPU-Sim PTX:    immediate post dominator      @  PC=0x2140 (_1.ptx:1416) add.s32 %r23, %r23, 1;
GPGPU-Sim PTX: 13 (potential) branch divergence @  PC=0x1330 (_1.ptx:868) @%p11 bra $Lt_10_48898;
GPGPU-Sim PTX:    immediate post dominator      @  PC=0x13b8 (_1.ptx:888) sub.f32 %f136, %f21, %f119;
GPGPU-Sim PTX: 14 (potential) branch divergence @  PC=0x1350 (_1.ptx:873) bra.uni $Lt_10_48642;
GPGPU-Sim PTX:    immediate post dominator      @  PC=0x13b8 (_1.ptx:888) sub.f32 %f136, %f21, %f119;
GPGPU-Sim PTX: 15 (potential) branch divergence @  PC=0x1430 (_1.ptx:903) @!%p12 bra $Lt_10_49410;
GPGPU-Sim PTX:    immediate post dominator      @  PC=0x1470 (_1.ptx:915) mov.f32 %f153, 0f3d4ccccd;   // 0.05
GPGPU-Sim PTX: 16 (potential) branch divergence @  PC=0x1450 (_1.ptx:908) bra.uni $Lt_10_49154;
GPGPU-Sim PTX:    immediate post dominator      @  PC=0x1470 (_1.ptx:915) mov.f32 %f153, 0f3d4ccccd;   // 0.05
GPGPU-Sim PTX: 17 (potential) branch divergence @  PC=0x1578 (_1.ptx:949) @!%p13 bra $Lt_10_58114;
GPGPU-Sim PTX:    immediate post dominator      @  PC=0x2080 (_1.ptx:1388) add.f32 %f399, %f126, %f126;
GPGPU-Sim PTX: 18 (potential) branch divergence @  PC=0x15c0 (_1.ptx:961) @%p14 bra $Lt_10_49922;
GPGPU-Sim PTX:    immediate post dominator      @  PC=0x17b0 (_1.ptx:1039) mov.f32 %f221, 0f00000000;   // 0
GPGPU-Sim PTX: 19 (potential) branch divergence @  PC=0x15e0 (_1.ptx:966) @!%p15 bra $Lt_10_50434;
GPGPU-Sim PTX:    immediate post dominator      @  PC=0x1638 (_1.ptx:982) mov.f32 %f190, %f183;
GPGPU-Sim PTX: 20 (potential) branch divergence @  PC=0x15f0 (_1.ptx:968) bra.uni $Lt_10_50178;
GPGPU-Sim PTX:    immediate post dominator      @  PC=0x1638 (_1.ptx:982) mov.f32 %f190, %f183;
GPGPU-Sim PTX: 21 (potential) branch divergence @  PC=0x1640 (_1.ptx:983) bra.uni $Lt_10_49666;
GPGPU-Sim PTX:    immediate post dominator      @  PC=0x17b0 (_1.ptx:1039) mov.f32 %f221, 0f00000000;   // 0
GPGPU-Sim PTX: 22 (potential) branch divergence @  PC=0x1738 (_1.ptx:1016) @%p18 bra $Lt_10_50946;
GPGPU-Sim PTX:    immediate post dominator      @  PC=0x17a8 (_1.ptx:1036) mov.f32 %f190, %f214;
GPGPU-Sim PTX: 23 (potential) branch divergence @  PC=0x1748 (_1.ptx:1018) bra.uni $Lt_10_51202;
GPGPU-Sim PTX:    immediate post dominator      @  PC=0x17a8 (_1.ptx:1036) mov.f32 %f190, %f214;
GPGPU-Sim PTX: 24 (potential) branch divergence @  PC=0x1768 (_1.ptx:1023) @!%p19 bra $Lt_10_51458;
GPGPU-Sim PTX:    immediate post dominator      @  PC=0x17a8 (_1.ptx:1036) mov.f32 %f190, %f214;
GPGPU-Sim PTX: 25 (potential) branch divergence @  PC=0x1778 (_1.ptx:1025) bra.uni $Lt_10_51202;
GPGPU-Sim PTX:    immediate post dominator      @  PC=0x17a8 (_1.ptx:1036) mov.f32 %f190, %f214;
GPGPU-Sim PTX: 26 (potential) branch divergence @  PC=0x17c0 (_1.ptx:1041) @!%p20 bra $Lt_10_58370;
GPGPU-Sim PTX:    immediate post dominator      @  PC=0x1828 (_1.ptx:1057) add.s32 %r50, %r50, 1;
GPGPU-Sim PTX: 27 (potential) branch divergence @  PC=0x1818 (_1.ptx:1052) @!%p21 bra $Lt_10_58370;
GPGPU-Sim PTX:    immediate post dominator      @  PC=0x1828 (_1.ptx:1057) add.s32 %r50, %r50, 1;
GPGPU-Sim PTX: 28 (potential) branch divergence @  PC=0x1848 (_1.ptx:1061) @%p22 bra $Lt_10_58882;
GPGPU-Sim PTX:    immediate post dominator      @  PC=0x1880 (_1.ptx:1071) @!%p23 bra $Lt_10_58114;
GPGPU-Sim PTX: 29 (potential) branch divergence @  PC=0x1860 (_1.ptx:1064) @%p23 bra $L_10_42498;
GPGPU-Sim PTX:    immediate post dominator      @  PC=0x1880 (_1.ptx:1071) @!%p23 bra $Lt_10_58114;
GPGPU-Sim PTX: 30 (potential) branch divergence @  PC=0x1868 (_1.ptx:1065) bra.uni $L_10_43266;
GPGPU-Sim PTX:    immediate post dominator      @  PC=0x1880 (_1.ptx:1071) @!%p23 bra $Lt_10_58114;
GPGPU-Sim PTX: 31 (potential) branch divergence @  PC=0x1880 (_1.ptx:1071) @!%p23 bra $Lt_10_58114;
GPGPU-Sim PTX:    immediate post dominator      @  PC=0x2080 (_1.ptx:1388) add.f32 %f399, %f126, %f126;
GPGPU-Sim PTX: 32 (potential) branch divergence @  PC=0x19c8 (_1.ptx:1115) @!%p24 bra $Lt_10_51714;
GPGPU-Sim PTX:    immediate post dominator      @  PC=0x2040 (_1.ptx:1375) mov.f32 %f394, 0f3f4ccccd;   // 0.8
GPGPU-Sim PTX: 33 (potential) branch divergence @  PC=0x19d8 (_1.ptx:1118) bra.uni $LDWendi___isnanf_192_1;
GPGPU-Sim PTX:    immediate post dominator      @  PC=0x2040 (_1.ptx:1375) mov.f32 %f394, 0f3f4ccccd;   // 0.8
GPGPU-Sim PTX: 34 (potential) branch divergence @  PC=0x19f8 (_1.ptx:1124) @!%p25 bra $Lt_10_7682;
GPGPU-Sim PTX:    immediate post dominator      @  PC=0x2040 (_1.ptx:1375) mov.f32 %f394, 0f3f4ccccd;   // 0.8
GPGPU-Sim PTX: 35 (potential) branch divergence @  PC=0x1a00 (_1.ptx:1125) bra.uni $Lt_10_7938;
GPGPU-Sim PTX:    immediate post dominator      @  PC=0x1a20 (_1.ptx:1133) mov.f32 %f272, 0f7f800000;   // ((1.0F)/(0.0F))
GPGPU-Sim PTX: 36 (potential) branch divergence @  PC=0x1a18 (_1.ptx:1130) bra.uni $LDWendi___isnanf_192_1;
GPGPU-Sim PTX:    immediate post dominator      @  PC=0x2040 (_1.ptx:1375) mov.f32 %f394, 0f3f4ccccd;   // 0.8
GPGPU-Sim PTX: 37 (potential) branch divergence @  PC=0x1a30 (_1.ptx:1135) @!%p26 bra $Lt_10_52226;
GPGPU-Sim PTX:    immediate post dominator      @  PC=0x2040 (_1.ptx:1375) mov.f32 %f394, 0f3f4ccccd;   // 0.8
GPGPU-Sim PTX: 38 (potential) branch divergence @  PC=0x1a40 (_1.ptx:1138) bra.uni $LDWendi___isnanf_192_1;
GPGPU-Sim PTX:    immediate post dominator      @  PC=0x2040 (_1.ptx:1375) mov.f32 %f394, 0f3f4ccccd;   // 0.8
GPGPU-Sim PTX: 39 (potential) branch divergence @  PC=0x1a58 (_1.ptx:1142) @!%p27 bra $Lt_10_52738;
GPGPU-Sim PTX:    immediate post dominator      @  PC=0x2040 (_1.ptx:1375) mov.f32 %f394, 0f3f4ccccd;   // 0.8
GPGPU-Sim PTX: 40 (potential) branch divergence @  PC=0x1ab8 (_1.ptx:1155) bra.uni $LDWendi___isnanf_192_1;
GPGPU-Sim PTX:    immediate post dominator      @  PC=0x2040 (_1.ptx:1375) mov.f32 %f394, 0f3f4ccccd;   // 0.8
GPGPU-Sim PTX: 41 (potential) branch divergence @  PC=0x1ad0 (_1.ptx:1159) @!%p29 bra $Lt_10_53250;
GPGPU-Sim PTX:    immediate post dominator      @  PC=0x2040 (_1.ptx:1375) mov.f32 %f394, 0f3f4ccccd;   // 0.8
GPGPU-Sim PTX: 42 (potential) branch divergence @  PC=0x1b20 (_1.ptx:1170) @!%p30 bra $Lt_10_53762;
GPGPU-Sim PTX:    immediate post dominator      @  PC=0x1b40 (_1.ptx:1177) mov.f32 %f268, %f284;
GPGPU-Sim PTX: 43 (potential) branch divergence @  PC=0x1b48 (_1.ptx:1178) bra.uni $LDWendi___isnanf_192_1;
GPGPU-Sim PTX:    immediate post dominator      @  PC=0x2040 (_1.ptx:1375) mov.f32 %f394, 0f3f4ccccd;   // 0.8
GPGPU-Sim PTX: 44 (potential) branch divergence @  PC=0x1b60 (_1.ptx:1183) @!%p31 bra $Lt_10_59394;
GPGPU-Sim PTX:    immediate post dominator      @  PC=0x2040 (_1.ptx:1375) mov.f32 %f394, 0f3f4ccccd;   // 0.8
GPGPU-Sim PTX: 45 (potential) branch divergence @  PC=0x1b88 (_1.ptx:1188) @!%p32 bra $Lt_10_59394;
GPGPU-Sim PTX:    immediate post dominator      @  PC=0x2040 (_1.ptx:1375) mov.f32 %f394, 0f3f4ccccd;   // 0.8
GPGPU-Sim PTX: 46 (potential) branch divergence @  PC=0x1ba0 (_1.ptx:1192) bra.uni $LDWendi___isnanf_192_1;
GPGPU-Sim PTX:    immediate post dominator      @  PC=0x2040 (_1.ptx:1375) mov.f32 %f394, 0f3f4ccccd;   // 0.8
GPGPU-Sim PTX: 47 (potential) branch divergence @  PC=0x1bd8 (_1.ptx:1202) @%p33 bra $Lt_10_54530;
GPGPU-Sim PTX:    immediate post dominator      @  PC=0x1c20 (_1.ptx:1216) sub.s32 %r64, %r64, 127;
GPGPU-Sim PTX: 48 (potential) branch divergence @  PC=0x1c10 (_1.ptx:1211) bra.uni $Lt_10_54274;
GPGPU-Sim PTX:    immediate post dominator      @  PC=0x1c20 (_1.ptx:1216) sub.s32 %r64, %r64, 127;
GPGPU-Sim PTX: 49 (potential) branch divergence @  PC=0x1c58 (_1.ptx:1224) @!%p34 bra $Lt_10_54786;
GPGPU-Sim PTX:    immediate post dominator      @  PC=0x1c78 (_1.ptx:1232) mov.f32 %f302, 0fbf800000;   // -1
GPGPU-Sim PTX: 50 (potential) branch divergence @  PC=0x1eb0 (_1.ptx:1312) @%p35 bra $Lt_10_55298;
GPGPU-Sim PTX:    immediate post dominator      @  PC=0x1ed8 (_1.ptx:1321) mov.f32 %f367, %f365;
GPGPU-Sim PTX: 51 (potential) branch divergence @  PC=0x1f98 (_1.ptx:1346) @!%p38 bra $Lt_10_55810;
GPGPU-Sim PTX:    immediate post dominator      @  PC=0x1fa8 (_1.ptx:1351) mov.f32 %f284, %f386;
GPGPU-Sim PTX: 52 (potential) branch divergence @  PC=0x2018 (_1.ptx:1365) @%p39 bra $Lt_10_56322;
GPGPU-Sim PTX:    immediate post dominator      @  PC=0x2038 (_1.ptx:1372) mov.f32 %f268, %f284;
GPGPU-Sim PTX: 53 (potential) branch divergence @  PC=0x2158 (_1.ptx:1419) @%p40 bra $L_10_42242;
GPGPU-Sim PTX:    immediate post dominator      @  PC=0x2170 (_1.ptx:1424) sub.s32 %r86, %r24, 1;
GPGPU-Sim PTX: 54 (potential) branch divergence @  PC=0x2168 (_1.ptx:1421) @%p41 bra $L_10_41474;
GPGPU-Sim PTX:    immediate post dominator      @  PC=0x2170 (_1.ptx:1424) sub.s32 %r86, %r24, 1;
GPGPU-Sim PTX: 55 (potential) branch divergence @  PC=0x2190 (_1.ptx:1428) @%p42 bra $Lt_10_56834;
GPGPU-Sim PTX:    immediate post dominator      @  PC=0x2288 (_1.ptx:1464) ld.global.u32 %r92, [%rd4+0];
GPGPU-Sim PTX: 56 (potential) branch divergence @  PC=0x2280 (_1.ptx:1461) @%p43 bra $Lt_10_57346;
GPGPU-Sim PTX:    immediate post dominator      @  PC=0x2288 (_1.ptx:1464) ld.global.u32 %r92, [%rd4+0];
GPGPU-Sim PTX: ... end of reconvergence points for _Z6renderPjP4Nodejjff
GPGPU-Sim PTX: ... done pre-decoding instructions for '_Z6renderPjP4Nodejjff'.
GPGPU-Sim PTX: instruction assembly for function '_ZN4dim3C1Ejjj'...   done.
GPGPU-Sim PTX: finding reconvergence points for '_ZN4dim3C1Ejjj'...
GPGPU-Sim PTX: Finding dominators for '_ZN4dim3C1Ejjj'...
GPGPU-Sim PTX: Finding immediate dominators for '_ZN4dim3C1Ejjj'...
GPGPU-Sim PTX: Finding postdominators for '_ZN4dim3C1Ejjj'...
GPGPU-Sim PTX: Finding immediate postdominators for '_ZN4dim3C1Ejjj'...
GPGPU-Sim PTX: pre-decoding instructions for '_ZN4dim3C1Ejjj'...
GPGPU-Sim PTX: reconvergence points for _ZN4dim3C1Ejjj...
GPGPU-Sim PTX: ... end of reconvergence points for _ZN4dim3C1Ejjj
GPGPU-Sim PTX: ... done pre-decoding instructions for '_ZN4dim3C1Ejjj'.
GPGPU-Sim PTX: finished parsing EMBEDDED .ptx file _1.ptx
Adding _cuobjdump_1.ptx with cubin handle 1
GPGPU-Sim PTX: extracting embedded .ptx to temporary file "_ptx_OPoChL"
Running: cat _ptx_OPoChL | sed 's/.version 1.5/.version 1.4/' | sed 's/, texmode_independent//' | sed 's/\(\.extern \.const\[1\] .b8 \w\+\)\[\]/\1\[1\]/' | sed 's/const\[.\]/const\[0\]/g' > _ptx2_kLA1s2
GPGPU-Sim PTX: generating ptxinfo using "$CUDA_INSTALL_PATH/bin/ptxas --gpu-name=sm_20 -v _ptx2_kLA1s2 --output-file  /dev/null 2> _ptx_OPoChLinfo"
GPGPU-Sim PTX: Kernel '_Z6renderPjP4Nodejjff' : regs=45, lmem=4, smem=0, cmem=180
GPGPU-Sim PTX: removing ptxinfo using "rm -f _ptx_OPoChL _ptx2_kLA1s2 _ptx_OPoChLinfo"
GPGPU-Sim PTX: loading globals with explicit initializers... 
GPGPU-Sim PTX: finished loading globals (0 bytes total).
GPGPU-Sim PTX: loading constants with explicit initializers...  done.
GPGPU-Sim PTX: __cudaRegisterVar: hostVar = 0x62fda0; deviceAddress = MView; deviceName = MView
GPGPU-Sim PTX: __cudaRegisterVar: Registering const memory space of 48 bytes
GPGPU-Sim PTX registering constant MView (48 bytes) to name mapping
GPGPU-Sim PTX: __cudaRegisterVar: hostVar = 0x62fde0; deviceAddress = cnode; deviceName = cnode
GPGPU-Sim PTX: __cudaRegisterVar: Registering const memory space of 160 bytes
GPGPU-Sim PTX registering constant cnode (160 bytes) to name mapping
GPGPU-Sim PTX: cudaMemcpyToSymbol: symbol = 0x62fde0
GPGPU-Sim PTX: starting gpgpu_ptx_sim_memcpy_symbol with hostVar 0x0x62fde0
GPGPU-Sim PTX: gpgpu_ptx_sim_memcpy_symbol: Found PTX symbol w/ hostVar=0x62fde0
GPGPU-Sim PTX: gpgpu_ptx_sim_memcpy_symbol: copying const memory 160 bytes  to  symbol cnode+0 @0x100 ...
GPGPU-Sim PTX: cudaMemcpyToSymbol: symbol = 0x62fda0
GPGPU-Sim PTX: starting gpgpu_ptx_sim_memcpy_symbol with hostVar 0x0x62fda0
GPGPU-Sim PTX: gpgpu_ptx_sim_memcpy_symbol: Found PTX symbol w/ hostVar=0x62fda0
GPGPU-Sim PTX: gpgpu_ptx_sim_memcpy_symbol: copying const memory 48 bytes  to  symbol MView+0 @0x200 ...

GPGPU-Sim PTX: cudaLaunch for 0x0x40ce13 (mode=performance simulation) on stream 0
GPGPU-Sim PTX: pushing kernel '_Z6renderPjP4Nodejjff' to stream 0, gridDim= (16,32,1) blockDim = (16,8,1) 
kernel '_Z6renderPjP4Nodejjff' transfer to GPU hardware scheduler
GPGPU-Sim uArch: Shader 1 bind to kernel 1 '_Z6renderPjP4Nodejjff'
GPGPU-Sim uArch: CTA/core = 5, limited by: regs
GPGPU-Sim uArch: core:  1, cta: 0 initialized @(1,0)
GPGPU-Sim uArch: Shader 2 bind to kernel 1 '_Z6renderPjP4Nodejjff'
GPGPU-Sim uArch: core:  2, cta: 0 initialized @(1,0)
GPGPU-Sim uArch: Shader 3 bind to kernel 1 '_Z6renderPjP4Nodejjff'
GPGPU-Sim uArch: core:  3, cta: 0 initialized @(1,0)
GPGPU-Sim uArch: Shader 4 bind to kernel 1 '_Z6renderPjP4Nodejjff'
GPGPU-Sim uArch: core:  4, cta: 0 initialized @(1,0)
GPGPU-Sim uArch: Shader 5 bind to kernel 1 '_Z6renderPjP4Nodejjff'
GPGPU-Sim uArch: core:  5, cta: 0 initialized @(1,0)
GPGPU-Sim uArch: Shader 6 bind to kernel 1 '_Z6renderPjP4Nodejjff'
GPGPU-Sim uArch: core:  6, cta: 0 initialized @(1,0)
GPGPU-Sim uArch: Shader 7 bind to kernel 1 '_Z6renderPjP4Nodejjff'
GPGPU-Sim uArch: core:  7, cta: 0 initialized @(1,0)
GPGPU-Sim uArch: Shader 8 bind to kernel 1 '_Z6renderPjP4Nodejjff'
GPGPU-Sim uArch: core:  8, cta: 0 initialized @(1,0)
GPGPU-Sim uArch: Shader 9 bind to kernel 1 '_Z6renderPjP4Nodejjff'
GPGPU-Sim uArch: core:  9, cta: 0 initialized @(1,0)
GPGPU-Sim uArch: Shader 10 bind to kernel 1 '_Z6renderPjP4Nodejjff'
GPGPU-Sim uArch: core: 10, cta: 0 initialized @(1,0)
GPGPU-Sim uArch: Shader 11 bind to kernel 1 '_Z6renderPjP4Nodejjff'
GPGPU-Sim uArch: core: 11, cta: 0 initialized @(1,0)
GPGPU-Sim uArch: Shader 12 bind to kernel 1 '_Z6renderPjP4Nodejjff'
GPGPU-Sim uArch: core: 12, cta: 0 initialized @(1,0)
GPGPU-Sim uArch: Shader 13 bind to kernel 1 '_Z6renderPjP4Nodejjff'
GPGPU-Sim uArch: core: 13, cta: 0 initialized @(1,0)
GPGPU-Sim uArch: Shader 14 bind to kernel 1 '_Z6renderPjP4Nodejjff'
GPGPU-Sim uArch: core: 14, cta: 0 initialized @(1,0)
GPGPU-Sim uArch: Shader 0 bind to kernel 1 '_Z6renderPjP4Nodejjff'
GPGPU-Sim uArch: core:  0, cta: 0 initialized @(1,0)
GPGPU-Sim uArch: core:  1, cta: 1 initialized @(2,0)
GPGPU-Sim uArch: core:  2, cta: 1 initialized @(2,0)
GPGPU-Sim uArch: core:  3, cta: 1 initialized @(2,0)
GPGPU-Sim uArch: core:  4, cta: 1 initialized @(2,0)
GPGPU-Sim uArch: core:  5, cta: 1 initialized @(2,0)
GPGPU-Sim uArch: core:  6, cta: 1 initialized @(2,0)
GPGPU-Sim uArch: core:  7, cta: 1 initialized @(2,0)
GPGPU-Sim uArch: core:  8, cta: 1 initialized @(2,0)
GPGPU-Sim uArch: core:  9, cta: 1 initialized @(2,0)
GPGPU-Sim uArch: core: 10, cta: 1 initialized @(2,0)
GPGPU-Sim uArch: core: 11, cta: 1 initialized @(2,0)
GPGPU-Sim uArch: core: 12, cta: 1 initialized @(2,0)
GPGPU-Sim uArch: core: 13, cta: 1 initialized @(2,0)
GPGPU-Sim uArch: core: 14, cta: 1 initialized @(2,0)
GPGPU-Sim uArch: core:  0, cta: 1 initialized @(2,0)
GPGPU-Sim uArch: core:  1, cta: 2 initialized @(3,0)
GPGPU-Sim uArch: core:  2, cta: 2 initialized @(3,0)
GPGPU-Sim uArch: core:  3, cta: 2 initialized @(3,0)
GPGPU-Sim uArch: core:  4, cta: 2 initialized @(3,0)
GPGPU-Sim uArch: core:  5, cta: 2 initialized @(3,0)
GPGPU-Sim uArch: core:  6, cta: 2 initialized @(3,0)
GPGPU-Sim uArch: core:  7, cta: 2 initialized @(3,0)
GPGPU-Sim uArch: core:  8, cta: 2 initialized @(3,0)
GPGPU-Sim uArch: core:  9, cta: 2 initialized @(3,0)
GPGPU-Sim uArch: core: 10, cta: 2 initialized @(3,0)
GPGPU-Sim uArch: core: 11, cta: 2 initialized @(3,0)
GPGPU-Sim uArch: core: 12, cta: 2 initialized @(3,0)
GPGPU-Sim uArch: core: 13, cta: 2 initialized @(3,0)
GPGPU-Sim uArch: core: 14, cta: 2 initialized @(3,0)
GPGPU-Sim uArch: core:  0, cta: 2 initialized @(3,0)
GPGPU-Sim uArch: core:  1, cta: 3 initialized @(4,0)
GPGPU-Sim uArch: core:  2, cta: 3 initialized @(4,0)
GPGPU-Sim uArch: core:  3, cta: 3 initialized @(4,0)
GPGPU-Sim uArch: core:  4, cta: 3 initialized @(4,0)
GPGPU-Sim uArch: core:  5, cta: 3 initialized @(4,0)
GPGPU-Sim uArch: core:  6, cta: 3 initialized @(4,0)
GPGPU-Sim uArch: core:  7, cta: 3 initialized @(4,0)
GPGPU-Sim uArch: core:  8, cta: 3 initialized @(4,0)
GPGPU-Sim uArch: core:  9, cta: 3 initialized @(4,0)
GPGPU-Sim uArch: core: 10, cta: 3 initialized @(4,0)
GPGPU-Sim uArch: core: 11, cta: 3 initialized @(4,0)
GPGPU-Sim uArch: core: 12, cta: 3 initialized @(4,0)
GPGPU-Sim uArch: core: 13, cta: 3 initialized @(4,0)
GPGPU-Sim uArch: core: 14, cta: 3 initialized @(4,0)
GPGPU-Sim uArch: core:  0, cta: 3 initialized @(4,0)
GPGPU-Sim uArch: core:  1, cta: 4 initialized @(5,0)
GPGPU-Sim uArch: core:  2, cta: 4 initialized @(5,0)
GPGPU-Sim uArch: core:  3, cta: 4 initialized @(5,0)
GPGPU-Sim uArch: core:  4, cta: 4 initialized @(5,0)
GPGPU-Sim uArch: core:  5, cta: 4 initialized @(5,0)
GPGPU-Sim uArch: core:  6, cta: 4 initialized @(5,0)
GPGPU-Sim uArch: core:  7, cta: 4 initialized @(5,0)
GPGPU-Sim uArch: core:  8, cta: 4 initialized @(5,0)
GPGPU-Sim uArch: core:  9, cta: 4 initialized @(5,0)
GPGPU-Sim uArch: core: 10, cta: 4 initialized @(5,0)
GPGPU-Sim uArch: core: 11, cta: 4 initialized @(5,0)
GPGPU-Sim uArch: core: 12, cta: 4 initialized @(5,0)
GPGPU-Sim uArch: core: 13, cta: 4 initialized @(5,0)
GPGPU-Sim uArch: core: 14, cta: 4 initialized @(5,0)
GPGPU-Sim uArch: core:  0, cta: 4 initialized @(5,0)
GPGPU-Sim uArch: cycles simulated: 500  inst.: 36224 (ipc=72.4) sim_rate=36224 (inst/sec) elapsed = 0:0:00:01 / Sun Feb 28 18:46:38 2016
GPGPU-Sim PTX: 100000 instructions simulated : ctaid=(2,0,0) tid=(15,5,0)
GPGPU-Sim uArch: cycles simulated: 2000  inst.: 121248 (ipc=60.6) sim_rate=60624 (inst/sec) elapsed = 0:0:00:02 / Sun Feb 28 18:46:39 2016
GPGPU-Sim PTX: 200000 instructions simulated : ctaid=(0,2,0) tid=(15,1,0)
GPGPU-Sim uArch: cycles simulated: 3000  inst.: 230528 (ipc=76.8) sim_rate=76842 (inst/sec) elapsed = 0:0:00:03 / Sun Feb 28 18:46:40 2016
GPGPU-Sim PTX: 300000 instructions simulated : ctaid=(5,3,0) tid=(15,1,0)
GPGPU-Sim PTX: 400000 instructions simulated : ctaid=(10,4,0) tid=(15,5,0)
GPGPU-Sim PTX: 500000 instructions simulated : ctaid=(2,3,0) tid=(15,5,0)
GPGPU-Sim uArch: cycles simulated: 4500  inst.: 531520 (ipc=118.1) sim_rate=132880 (inst/sec) elapsed = 0:0:00:04 / Sun Feb 28 18:46:41 2016
GPGPU-Sim PTX: 600000 instructions simulated : ctaid=(11,0,0) tid=(15,1,0)
GPGPU-Sim PTX: 700000 instructions simulated : ctaid=(1,1,0) tid=(15,7,0)
GPGPU-Sim uArch: cycles simulated: 5000  inst.: 734464 (ipc=146.9) sim_rate=146892 (inst/sec) elapsed = 0:0:00:05 / Sun Feb 28 18:46:42 2016
GPGPU-Sim PTX: 800000 instructions simulated : ctaid=(9,0,0) tid=(15,3,0)
GPGPU-Sim PTX: 900000 instructions simulated : ctaid=(6,3,0) tid=(15,5,0)
GPGPU-Sim PTX: 1000000 instructions simulated : ctaid=(7,2,0) tid=(15,3,0)
GPGPU-Sim uArch: cycles simulated: 6000  inst.: 999008 (ipc=166.5) sim_rate=166501 (inst/sec) elapsed = 0:0:00:06 / Sun Feb 28 18:46:43 2016
GPGPU-Sim PTX: 1100000 instructions simulated : ctaid=(11,1,0) tid=(15,7,0)
GPGPU-Sim PTX: 1200000 instructions simulated : ctaid=(12,1,0) tid=(15,7,0)
GPGPU-Sim PTX: 1300000 instructions simulated : ctaid=(8,4,0) tid=(15,3,0)
GPGPU-Sim PTX: 1400000 instructions simulated : ctaid=(14,0,0) tid=(15,1,0)
GPGPU-Sim PTX: 1500000 instructions simulated : ctaid=(0,1,0) tid=(15,1,0)
GPGPU-Sim uArch: cycles simulated: 7000  inst.: 1523840 (ipc=217.7) sim_rate=217691 (inst/sec) elapsed = 0:0:00:07 / Sun Feb 28 18:46:44 2016
GPGPU-Sim PTX: 1600000 instructions simulated : ctaid=(15,1,0) tid=(15,5,0)
GPGPU-Sim PTX: 1700000 instructions simulated : ctaid=(6,3,0) tid=(15,7,0)
GPGPU-Sim PTX: 1800000 instructions simulated : ctaid=(14,0,0) tid=(15,7,0)
GPGPU-Sim uArch: cycles simulated: 7500  inst.: 1809664 (ipc=241.3) sim_rate=226208 (inst/sec) elapsed = 0:0:00:08 / Sun Feb 28 18:46:45 2016
GPGPU-Sim PTX: 1900000 instructions simulated : ctaid=(10,3,0) tid=(15,7,0)
GPGPU-Sim PTX: 2000000 instructions simulated : ctaid=(0,0,0) tid=(15,5,0)
GPGPU-Sim PTX: 2100000 instructions simulated : ctaid=(7,1,0) tid=(15,5,0)
GPGPU-Sim PTX: 2200000 instructions simulated : ctaid=(12,0,0) tid=(15,1,0)
GPGPU-Sim uArch: cycles simulated: 8000  inst.: 2208448 (ipc=276.1) sim_rate=245383 (inst/sec) elapsed = 0:0:00:09 / Sun Feb 28 18:46:46 2016
GPGPU-Sim PTX: 2300000 instructions simulated : ctaid=(15,3,0) tid=(15,3,0)
GPGPU-Sim PTX: 2400000 instructions simulated : ctaid=(11,3,0) tid=(15,3,0)
GPGPU-Sim PTX: 2500000 instructions simulated : ctaid=(2,0,0) tid=(15,1,0)
GPGPU-Sim PTX: 2600000 instructions simulated : ctaid=(10,0,0) tid=(15,1,0)
GPGPU-Sim PTX: 2700000 instructions simulated : ctaid=(2,2,0) tid=(15,1,0)
GPGPU-Sim PTX: 2800000 instructions simulated : ctaid=(9,1,0) tid=(15,5,0)
GPGPU-Sim PTX: 2900000 instructions simulated : ctaid=(0,2,0) tid=(15,7,0)
GPGPU-Sim PTX: 3000000 instructions simulated : ctaid=(11,1,0) tid=(15,3,0)
GPGPU-Sim uArch: cycles simulated: 9000  inst.: 2929312 (ipc=325.5) sim_rate=292931 (inst/sec) elapsed = 0:0:00:10 / Sun Feb 28 18:46:47 2016
GPGPU-Sim PTX: 3100000 instructions simulated : ctaid=(10,0,0) tid=(15,7,0)
GPGPU-Sim PTX: 3200000 instructions simulated : ctaid=(5,0,0) tid=(15,5,0)
GPGPU-Sim PTX: 3300000 instructions simulated : ctaid=(5,4,0) tid=(15,5,0)
GPGPU-Sim uArch: cycles simulated: 9500  inst.: 3223840 (ipc=339.4) sim_rate=293076 (inst/sec) elapsed = 0:0:00:11 / Sun Feb 28 18:46:48 2016
GPGPU-Sim PTX: 3400000 instructions simulated : ctaid=(2,0,0) tid=(15,7,0)
GPGPU-Sim uArch: cycles simulated: 10000  inst.: 3388928 (ipc=338.9) sim_rate=282410 (inst/sec) elapsed = 0:0:00:12 / Sun Feb 28 18:46:49 2016
GPGPU-Sim PTX: 3500000 instructions simulated : ctaid=(0,2,0) tid=(15,5,0)
GPGPU-Sim PTX: 3600000 instructions simulated : ctaid=(2,0,0) tid=(15,3,0)
GPGPU-Sim PTX: 3700000 instructions simulated : ctaid=(4,4,0) tid=(15,5,0)
GPGPU-Sim PTX: 3800000 instructions simulated : ctaid=(4,0,0) tid=(15,1,0)
GPGPU-Sim uArch: cycles simulated: 11000  inst.: 3729376 (ipc=339.0) sim_rate=286875 (inst/sec) elapsed = 0:0:00:13 / Sun Feb 28 18:46:50 2016
GPGPU-Sim PTX: 3900000 instructions simulated : ctaid=(2,4,0) tid=(15,3,0)
GPGPU-Sim PTX: 4000000 instructions simulated : ctaid=(3,0,0) tid=(15,3,0)
GPGPU-Sim PTX: 4100000 instructions simulated : ctaid=(6,2,0) tid=(15,3,0)
GPGPU-Sim uArch: cycles simulated: 12000  inst.: 4032448 (ipc=336.0) sim_rate=288032 (inst/sec) elapsed = 0:0:00:14 / Sun Feb 28 18:46:51 2016
GPGPU-Sim PTX: 4200000 instructions simulated : ctaid=(12,1,0) tid=(15,5,0)
GPGPU-Sim PTX: 4300000 instructions simulated : ctaid=(14,3,0) tid=(15,5,0)
GPGPU-Sim PTX: 4400000 instructions simulated : ctaid=(1,0,0) tid=(15,7,0)
GPGPU-Sim PTX: 4500000 instructions simulated : ctaid=(10,4,0) tid=(15,7,0)
GPGPU-Sim uArch: cycles simulated: 13000  inst.: 4406336 (ipc=338.9) sim_rate=293755 (inst/sec) elapsed = 0:0:00:15 / Sun Feb 28 18:46:52 2016
GPGPU-Sim PTX: 4600000 instructions simulated : ctaid=(2,2,0) tid=(15,5,0)
GPGPU-Sim PTX: 4700000 instructions simulated : ctaid=(1,3,0) tid=(1,1,0)
GPGPU-Sim PTX: 4800000 instructions simulated : ctaid=(2,1,0) tid=(15,4,0)
GPGPU-Sim PTX: 4900000 instructions simulated : ctaid=(6,1,0) tid=(15,6,0)
GPGPU-Sim PTX: 5000000 instructions simulated : ctaid=(14,3,0) tid=(15,0,0)
GPGPU-Sim PTX: 5100000 instructions simulated : ctaid=(7,4,0) tid=(15,0,0)
GPGPU-Sim PTX: 5200000 instructions simulated : ctaid=(7,4,0) tid=(15,2,0)
GPGPU-Sim uArch: cycles simulated: 14000  inst.: 5088912 (ipc=363.5) sim_rate=318057 (inst/sec) elapsed = 0:0:00:16 / Sun Feb 28 18:46:53 2016
GPGPU-Sim PTX: 5300000 instructions simulated : ctaid=(12,0,0) tid=(15,0,0)
GPGPU-Sim PTX: 5400000 instructions simulated : ctaid=(9,2,0) tid=(8,6,0)
GPGPU-Sim PTX: 5500000 instructions simulated : ctaid=(0,2,0) tid=(2,7,0)
GPGPU-Sim PTX: 5600000 instructions simulated : ctaid=(0,1,0) tid=(2,4,0)
GPGPU-Sim uArch: cycles simulated: 14500  inst.: 5474861 (ipc=377.6) sim_rate=322050 (inst/sec) elapsed = 0:0:00:17 / Sun Feb 28 18:46:54 2016
GPGPU-Sim PTX: 5700000 instructions simulated : ctaid=(12,0,0) tid=(4,1,0)
GPGPU-Sim PTX: 5800000 instructions simulated : ctaid=(9,4,0) tid=(2,1,0)
GPGPU-Sim PTX: 5900000 instructions simulated : ctaid=(2,1,0) tid=(9,0,0)
GPGPU-Sim uArch: cycles simulated: 15000  inst.: 5800996 (ipc=386.7) sim_rate=322277 (inst/sec) elapsed = 0:0:00:18 / Sun Feb 28 18:46:55 2016
GPGPU-Sim PTX: 6000000 instructions simulated : ctaid=(14,3,0) tid=(8,6,0)
GPGPU-Sim PTX: 6100000 instructions simulated : ctaid=(10,0,0) tid=(11,5,0)
GPGPU-Sim PTX: 6200000 instructions simulated : ctaid=(3,3,0) tid=(11,7,0)
GPGPU-Sim uArch: cycles simulated: 16000  inst.: 6114308 (ipc=382.1) sim_rate=321805 (inst/sec) elapsed = 0:0:00:19 / Sun Feb 28 18:46:56 2016
GPGPU-Sim PTX: 6300000 instructions simulated : ctaid=(10,2,0) tid=(11,7,0)
GPGPU-Sim PTX: 6400000 instructions simulated : ctaid=(8,2,0) tid=(11,1,0)
GPGPU-Sim PTX: 6500000 instructions simulated : ctaid=(2,1,0) tid=(11,6,0)
GPGPU-Sim PTX: 6600000 instructions simulated : ctaid=(5,0,0) tid=(11,1,0)
GPGPU-Sim uArch: cycles simulated: 17500  inst.: 6420708 (ipc=366.9) sim_rate=321035 (inst/sec) elapsed = 0:0:00:20 / Sun Feb 28 18:46:57 2016
GPGPU-Sim PTX: 6700000 instructions simulated : ctaid=(4,1,0) tid=(11,3,0)
GPGPU-Sim PTX: 6800000 instructions simulated : ctaid=(2,1,0) tid=(11,1,0)
GPGPU-Sim PTX: 6900000 instructions simulated : ctaid=(1,0,0) tid=(11,5,0)
GPGPU-Sim uArch: cycles simulated: 18500  inst.: 6810660 (ipc=368.1) sim_rate=324317 (inst/sec) elapsed = 0:0:00:21 / Sun Feb 28 18:46:58 2016
GPGPU-Sim PTX: 7000000 instructions simulated : ctaid=(1,1,0) tid=(11,5,0)
GPGPU-Sim PTX: 7100000 instructions simulated : ctaid=(15,3,0) tid=(11,1,0)
GPGPU-Sim uArch: cycles simulated: 19000  inst.: 6992036 (ipc=368.0) sim_rate=317819 (inst/sec) elapsed = 0:0:00:22 / Sun Feb 28 18:46:59 2016
GPGPU-Sim PTX: 7200000 instructions simulated : ctaid=(12,3,0) tid=(11,3,0)
GPGPU-Sim PTX: 7300000 instructions simulated : ctaid=(3,2,0) tid=(11,7,0)
GPGPU-Sim PTX: 7400000 instructions simulated : ctaid=(5,1,0) tid=(11,3,0)
GPGPU-Sim PTX: 7500000 instructions simulated : ctaid=(3,1,0) tid=(11,7,0)
GPGPU-Sim uArch: cycles simulated: 20000  inst.: 7361380 (ipc=368.1) sim_rate=320060 (inst/sec) elapsed = 0:0:00:23 / Sun Feb 28 18:47:00 2016
GPGPU-Sim PTX: 7600000 instructions simulated : ctaid=(13,0,0) tid=(11,5,0)
GPGPU-Sim PTX: 7700000 instructions simulated : ctaid=(10,1,0) tid=(11,5,0)
GPGPU-Sim PTX: 7800000 instructions simulated : ctaid=(8,0,0) tid=(11,7,0)
GPGPU-Sim uArch: cycles simulated: 21000  inst.: 7667812 (ipc=365.1) sim_rate=319492 (inst/sec) elapsed = 0:0:00:24 / Sun Feb 28 18:47:01 2016
GPGPU-Sim PTX: 7900000 instructions simulated : ctaid=(15,2,0) tid=(11,1,0)
GPGPU-Sim PTX: 8000000 instructions simulated : ctaid=(12,2,0) tid=(11,1,0)
GPGPU-Sim PTX: 8100000 instructions simulated : ctaid=(0,0,0) tid=(11,3,0)
GPGPU-Sim PTX: 8200000 instructions simulated : ctaid=(8,1,0) tid=(11,3,0)
GPGPU-Sim uArch: cycles simulated: 22000  inst.: 8051812 (ipc=366.0) sim_rate=322072 (inst/sec) elapsed = 0:0:00:25 / Sun Feb 28 18:47:02 2016
GPGPU-Sim PTX: 8300000 instructions simulated : ctaid=(6,3,0) tid=(11,7,0)
GPGPU-Sim PTX: 8400000 instructions simulated : ctaid=(10,0,0) tid=(11,3,0)
GPGPU-Sim PTX: 8500000 instructions simulated : ctaid=(15,2,0) tid=(11,7,0)
GPGPU-Sim PTX: 8600000 instructions simulated : ctaid=(0,4,0) tid=(11,1,0)
GPGPU-Sim PTX: 8700000 instructions simulated : ctaid=(1,4,0) tid=(15,3,0)
GPGPU-Sim PTX: 8800000 instructions simulated : ctaid=(7,2,0) tid=(15,7,0)
GPGPU-Sim PTX: 8900000 instructions simulated : ctaid=(1,2,0) tid=(11,7,0)
GPGPU-Sim uArch: cycles simulated: 23000  inst.: 8737220 (ipc=379.9) sim_rate=336046 (inst/sec) elapsed = 0:0:00:26 / Sun Feb 28 18:47:03 2016
GPGPU-Sim PTX: 9000000 instructions simulated : ctaid=(14,2,0) tid=(10,3,0)
GPGPU-Sim PTX: 9100000 instructions simulated : ctaid=(6,0,0) tid=(11,6,0)
GPGPU-Sim PTX: 9200000 instructions simulated : ctaid=(10,0,0) tid=(1,3,0)
GPGPU-Sim PTX: 9300000 instructions simulated : ctaid=(13,1,0) tid=(3,7,0)
GPGPU-Sim uArch: cycles simulated: 23500  inst.: 9137964 (ipc=388.8) sim_rate=338443 (inst/sec) elapsed = 0:0:00:27 / Sun Feb 28 18:47:04 2016
GPGPU-Sim PTX: 9400000 instructions simulated : ctaid=(12,1,0) tid=(2,2,0)
GPGPU-Sim PTX: 9500000 instructions simulated : ctaid=(2,4,0) tid=(11,0,0)
GPGPU-Sim PTX: 9600000 instructions simulated : ctaid=(12,3,0) tid=(13,0,0)
GPGPU-Sim PTX: 9700000 instructions simulated : ctaid=(14,3,0) tid=(14,4,0)
GPGPU-Sim uArch: cycles simulated: 24000  inst.: 9526073 (ipc=396.9) sim_rate=340216 (inst/sec) elapsed = 0:0:00:28 / Sun Feb 28 18:47:05 2016
GPGPU-Sim PTX: 9800000 instructions simulated : ctaid=(8,4,0) tid=(13,1,0)
GPGPU-Sim PTX: 9900000 instructions simulated : ctaid=(9,3,0) tid=(14,6,0)
GPGPU-Sim PTX: 10000000 instructions simulated : ctaid=(6,3,0) tid=(15,6,0)
GPGPU-Sim uArch: cycles simulated: 24500  inst.: 9769047 (ipc=398.7) sim_rate=336863 (inst/sec) elapsed = 0:0:00:29 / Sun Feb 28 18:47:06 2016
GPGPU-Sim PTX: 10100000 instructions simulated : ctaid=(7,3,0) tid=(6,7,0)
GPGPU-Sim PTX: 10200000 instructions simulated : ctaid=(11,2,0) tid=(6,6,0)
GPGPU-Sim PTX: 10300000 instructions simulated : ctaid=(9,0,0) tid=(0,4,0)
GPGPU-Sim PTX: 10400000 instructions simulated : ctaid=(3,2,0) tid=(6,6,0)
GPGPU-Sim uArch: cycles simulated: 26000  inst.: 10163558 (ipc=390.9) sim_rate=338785 (inst/sec) elapsed = 0:0:00:30 / Sun Feb 28 18:47:07 2016
GPGPU-Sim uArch: Shader 14 finished CTA #0 (26001,0), 4 CTAs running
GPGPU-Sim uArch: core: 14, cta: 0 initialized @(26002,0)
GPGPU-Sim uArch: Shader 8 finished CTA #2 (26019,0), 4 CTAs running
GPGPU-Sim uArch: core:  8, cta: 2 initialized @(26020,0)
GPGPU-Sim uArch: Shader 0 finished CTA #0 (26033,0), 4 CTAs running
GPGPU-Sim uArch: core:  0, cta: 0 initialized @(26034,0)
GPGPU-Sim uArch: Shader 8 finished CTA #3 (26037,0), 4 CTAs running
GPGPU-Sim uArch: core:  8, cta: 3 initialized @(26038,0)
GPGPU-Sim uArch: Shader 3 finished CTA #0 (26062,0), 4 CTAs running
GPGPU-Sim uArch: core:  3, cta: 0 initialized @(26063,0)
GPGPU-Sim uArch: Shader 6 finished CTA #4 (26085,0), 4 CTAs running
GPGPU-Sim uArch: core:  6, cta: 4 initialized @(26086,0)
GPGPU-Sim uArch: Shader 8 finished CTA #4 (26093,0), 4 CTAs running
GPGPU-Sim uArch: core:  8, cta: 4 initialized @(26094,0)
GPGPU-Sim uArch: Shader 6 finished CTA #3 (26103,0), 4 CTAs running
GPGPU-Sim uArch: core:  6, cta: 3 initialized @(26104,0)
GPGPU-Sim uArch: Shader 0 finished CTA #1 (26105,0), 4 CTAs running
GPGPU-Sim uArch: core:  0, cta: 1 initialized @(26106,0)
GPGPU-Sim uArch: Shader 6 finished CTA #2 (26113,0), 4 CTAs running
GPGPU-Sim uArch: core:  6, cta: 2 initialized @(26114,0)
GPGPU-Sim uArch: Shader 2 finished CTA #0 (26115,0), 4 CTAs running
GPGPU-Sim uArch: core:  2, cta: 0 initialized @(26116,0)
GPGPU-Sim uArch: Shader 1 finished CTA #1 (26124,0), 4 CTAs running
GPGPU-Sim uArch: core:  1, cta: 1 initialized @(26125,0)
GPGPU-Sim uArch: Shader 4 finished CTA #2 (26128,0), 4 CTAs running
GPGPU-Sim uArch: core:  4, cta: 2 initialized @(26129,0)
GPGPU-Sim uArch: Shader 3 finished CTA #1 (26139,0), 4 CTAs running
GPGPU-Sim uArch: core:  3, cta: 1 initialized @(26140,0)
GPGPU-Sim uArch: Shader 1 finished CTA #0 (26143,0), 4 CTAs running
GPGPU-Sim uArch: core:  1, cta: 0 initialized @(26144,0)
GPGPU-Sim uArch: Shader 0 finished CTA #2 (26148,0), 4 CTAs running
GPGPU-Sim uArch: core:  0, cta: 2 initialized @(26149,0)
GPGPU-Sim uArch: Shader 3 finished CTA #4 (26152,0), 4 CTAs running
GPGPU-Sim uArch: core:  3, cta: 4 initialized @(26153,0)
GPGPU-Sim uArch: Shader 0 finished CTA #3 (26156,0), 4 CTAs running
GPGPU-Sim uArch: core:  0, cta: 3 initialized @(26157,0)
GPGPU-Sim uArch: Shader 0 finished CTA #4 (26164,0), 4 CTAs running
GPGPU-Sim uArch: core:  0, cta: 4 initialized @(26165,0)
GPGPU-Sim uArch: Shader 7 finished CTA #3 (26169,0), 4 CTAs running
GPGPU-Sim uArch: core:  7, cta: 3 initialized @(26170,0)
GPGPU-Sim uArch: Shader 4 finished CTA #1 (26171,0), 4 CTAs running
GPGPU-Sim uArch: core:  4, cta: 1 initialized @(26172,0)
GPGPU-Sim uArch: Shader 9 finished CTA #3 (26177,0), 4 CTAs running
GPGPU-Sim uArch: core:  9, cta: 3 initialized @(26178,0)
GPGPU-Sim uArch: Shader 4 finished CTA #4 (26187,0), 4 CTAs running
GPGPU-Sim uArch: core:  4, cta: 4 initialized @(26188,0)
GPGPU-Sim uArch: Shader 2 finished CTA #1 (26193,0), 4 CTAs running
GPGPU-Sim uArch: core:  2, cta: 1 initialized @(26194,0)
GPGPU-Sim uArch: Shader 1 finished CTA #3 (26195,0), 4 CTAs running
GPGPU-Sim uArch: core:  1, cta: 3 initialized @(26196,0)
GPGPU-Sim uArch: Shader 4 finished CTA #3 (26203,0), 4 CTAs running
GPGPU-Sim uArch: core:  4, cta: 3 initialized @(26204,0)
GPGPU-Sim uArch: Shader 2 finished CTA #2 (26209,0), 4 CTAs running
GPGPU-Sim uArch: core:  2, cta: 2 initialized @(26210,0)
GPGPU-Sim uArch: Shader 1 finished CTA #2 (26217,0), 4 CTAs running
GPGPU-Sim uArch: core:  1, cta: 2 initialized @(26218,0)
GPGPU-Sim uArch: Shader 5 finished CTA #3 (26219,0), 4 CTAs running
GPGPU-Sim uArch: core:  5, cta: 3 initialized @(26220,0)
GPGPU-Sim uArch: Shader 2 finished CTA #3 (26221,0), 4 CTAs running
GPGPU-Sim uArch: core:  2, cta: 3 initialized @(26222,0)
GPGPU-Sim uArch: Shader 1 finished CTA #4 (26225,0), 4 CTAs running
GPGPU-Sim uArch: core:  1, cta: 4 initialized @(26226,0)
GPGPU-Sim uArch: Shader 2 finished CTA #4 (26229,0), 4 CTAs running
GPGPU-Sim uArch: Shader 3 finished CTA #3 (26229,0), 4 CTAs running
GPGPU-Sim uArch: core:  2, cta: 4 initialized @(26230,0)
GPGPU-Sim uArch: core:  3, cta: 3 initialized @(26230,0)
GPGPU-Sim uArch: Shader 7 finished CTA #4 (26231,0), 4 CTAs running
GPGPU-Sim uArch: core:  7, cta: 4 initialized @(26232,0)
GPGPU-Sim PTX: 10500000 instructions simulated : ctaid=(7,0,0) tid=(4,6,0)
GPGPU-Sim uArch: Shader 5 finished CTA #2 (26242,0), 4 CTAs running
GPGPU-Sim uArch: core:  5, cta: 2 initialized @(26243,0)
GPGPU-Sim uArch: Shader 3 finished CTA #2 (26282,0), 4 CTAs running
GPGPU-Sim uArch: core:  3, cta: 2 initialized @(26283,0)
GPGPU-Sim uArch: Shader 10 finished CTA #4 (26290,0), 4 CTAs running
GPGPU-Sim uArch: core: 10, cta: 4 initialized @(26291,0)
GPGPU-Sim uArch: Shader 9 finished CTA #4 (26312,0), 4 CTAs running
GPGPU-Sim uArch: core:  9, cta: 4 initialized @(26313,0)
GPGPU-Sim uArch: Shader 5 finished CTA #4 (26417,0), 4 CTAs running
GPGPU-Sim uArch: core:  5, cta: 4 initialized @(26418,0)
GPGPU-Sim uArch: cycles simulated: 26500  inst.: 10309913 (ipc=389.1) sim_rate=332577 (inst/sec) elapsed = 0:0:00:31 / Sun Feb 28 18:47:08 2016
GPGPU-Sim PTX: 10600000 instructions simulated : ctaid=(4,0,0) tid=(8,1,0)
GPGPU-Sim PTX: 10700000 instructions simulated : ctaid=(9,4,0) tid=(11,4,0)
GPGPU-Sim PTX: 10800000 instructions simulated : ctaid=(8,2,0) tid=(8,7,0)
GPGPU-Sim PTX: 10900000 instructions simulated : ctaid=(9,1,0) tid=(11,4,0)
GPGPU-Sim uArch: cycles simulated: 27500  inst.: 10621036 (ipc=386.2) sim_rate=331907 (inst/sec) elapsed = 0:0:00:32 / Sun Feb 28 18:47:09 2016
GPGPU-Sim PTX: 11000000 instructions simulated : ctaid=(2,5,0) tid=(0,0,0)
GPGPU-Sim PTX: 11100000 instructions simulated : ctaid=(7,4,0) tid=(10,7,0)
GPGPU-Sim uArch: cycles simulated: 28000  inst.: 10837313 (ipc=387.0) sim_rate=328403 (inst/sec) elapsed = 0:0:00:33 / Sun Feb 28 18:47:10 2016
GPGPU-Sim PTX: 11200000 instructions simulated : ctaid=(1,5,0) tid=(7,1,0)
GPGPU-Sim PTX: 11300000 instructions simulated : ctaid=(7,1,0) tid=(0,7,0)
GPGPU-Sim uArch: cycles simulated: 28500  inst.: 11079175 (ipc=388.7) sim_rate=325858 (inst/sec) elapsed = 0:0:00:34 / Sun Feb 28 18:47:11 2016
GPGPU-Sim PTX: 11400000 instructions simulated : ctaid=(7,1,0) tid=(15,3,0)
GPGPU-Sim PTX: 11500000 instructions simulated : ctaid=(15,6,0) tid=(9,7,0)
GPGPU-Sim PTX: 11600000 instructions simulated : ctaid=(15,5,0) tid=(10,3,0)
GPGPU-Sim uArch: cycles simulated: 29000  inst.: 11358518 (ipc=391.7) sim_rate=324529 (inst/sec) elapsed = 0:0:00:35 / Sun Feb 28 18:47:12 2016
GPGPU-Sim PTX: 11700000 instructions simulated : ctaid=(3,6,0) tid=(3,2,0)
GPGPU-Sim PTX: 11800000 instructions simulated : ctaid=(3,6,0) tid=(0,3,0)
GPGPU-Sim PTX: 11900000 instructions simulated : ctaid=(9,5,0) tid=(5,4,0)
GPGPU-Sim PTX: 12000000 instructions simulated : ctaid=(3,0,0) tid=(15,3,0)
GPGPU-Sim PTX: 12100000 instructions simulated : ctaid=(14,6,0) tid=(7,5,0)
GPGPU-Sim PTX: 12200000 instructions simulated : ctaid=(11,5,0) tid=(6,0,0)
GPGPU-Sim uArch: cycles simulated: 30000  inst.: 11950296 (ipc=398.3) sim_rate=331952 (inst/sec) elapsed = 0:0:00:36 / Sun Feb 28 18:47:13 2016
GPGPU-Sim PTX: 12300000 instructions simulated : ctaid=(10,1,0) tid=(12,3,0)
GPGPU-Sim uArch: Shader 7 finished CTA #2 (30067,0), 4 CTAs running
GPGPU-Sim uArch: core:  7, cta: 2 initialized @(30068,0)
GPGPU-Sim uArch: Shader 14 finished CTA #2 (30179,0), 4 CTAs running
GPGPU-Sim uArch: core: 14, cta: 2 initialized @(30180,0)
GPGPU-Sim PTX: 12400000 instructions simulated : ctaid=(11,4,0) tid=(4,5,0)
GPGPU-Sim PTX: 12500000 instructions simulated : ctaid=(2,6,0) tid=(9,4,0)
GPGPU-Sim uArch: cycles simulated: 30500  inst.: 12267933 (ipc=402.2) sim_rate=331565 (inst/sec) elapsed = 0:0:00:37 / Sun Feb 28 18:47:14 2016
GPGPU-Sim PTX: 12600000 instructions simulated : ctaid=(10,5,0) tid=(0,0,0)
GPGPU-Sim PTX: 12700000 instructions simulated : ctaid=(0,5,0) tid=(15,0,0)
GPGPU-Sim PTX: 12800000 instructions simulated : ctaid=(8,5,0) tid=(5,6,0)
GPGPU-Sim PTX: 12900000 instructions simulated : ctaid=(11,5,0) tid=(0,3,0)
GPGPU-Sim PTX: 13000000 instructions simulated : ctaid=(14,4,0) tid=(15,4,0)
GPGPU-Sim PTX: 13100000 instructions simulated : ctaid=(15,5,0) tid=(4,5,0)
GPGPU-Sim uArch: cycles simulated: 31500  inst.: 12840211 (ipc=407.6) sim_rate=337900 (inst/sec) elapsed = 0:0:00:38 / Sun Feb 28 18:47:15 2016
GPGPU-Sim PTX: 13200000 instructions simulated : ctaid=(9,3,0) tid=(9,5,0)
GPGPU-Sim PTX: 13300000 instructions simulated : ctaid=(8,5,0) tid=(3,0,0)
GPGPU-Sim PTX: 13400000 instructions simulated : ctaid=(14,5,0) tid=(0,4,0)
GPGPU-Sim uArch: cycles simulated: 32000  inst.: 13100347 (ipc=409.4) sim_rate=335906 (inst/sec) elapsed = 0:0:00:39 / Sun Feb 28 18:47:16 2016
GPGPU-Sim PTX: 13500000 instructions simulated : ctaid=(9,5,0) tid=(9,5,0)
GPGPU-Sim PTX: 13600000 instructions simulated : ctaid=(12,6,0) tid=(5,2,0)
GPGPU-Sim PTX: 13700000 instructions simulated : ctaid=(4,5,0) tid=(4,4,0)
GPGPU-Sim uArch: cycles simulated: 32500  inst.: 13366084 (ipc=411.3) sim_rate=334152 (inst/sec) elapsed = 0:0:00:40 / Sun Feb 28 18:47:17 2016
GPGPU-Sim PTX: 13800000 instructions simulated : ctaid=(2,7,0) tid=(14,2,0)
GPGPU-Sim PTX: 13900000 instructions simulated : ctaid=(0,5,0) tid=(2,3,0)
GPGPU-Sim PTX: 14000000 instructions simulated : ctaid=(15,6,0) tid=(13,5,0)
GPGPU-Sim uArch: cycles simulated: 33000  inst.: 13633402 (ipc=413.1) sim_rate=332522 (inst/sec) elapsed = 0:0:00:41 / Sun Feb 28 18:47:18 2016
GPGPU-Sim PTX: 14100000 instructions simulated : ctaid=(10,6,0) tid=(8,0,0)
GPGPU-Sim PTX: 14200000 instructions simulated : ctaid=(13,4,0) tid=(3,4,0)
GPGPU-Sim PTX: 14300000 instructions simulated : ctaid=(0,5,0) tid=(0,0,0)
GPGPU-Sim PTX: 14400000 instructions simulated : ctaid=(6,1,0) tid=(4,3,0)
GPGPU-Sim PTX: 14500000 instructions simulated : ctaid=(15,6,0) tid=(10,2,0)
GPGPU-Sim PTX: 14600000 instructions simulated : ctaid=(5,6,0) tid=(15,0,0)
GPGPU-Sim uArch: cycles simulated: 34000  inst.: 14221960 (ipc=418.3) sim_rate=338618 (inst/sec) elapsed = 0:0:00:42 / Sun Feb 28 18:47:19 2016
GPGPU-Sim PTX: 14700000 instructions simulated : ctaid=(8,2,0) tid=(3,2,0)
GPGPU-Sim PTX: 14800000 instructions simulated : ctaid=(8,4,0) tid=(8,6,0)
GPGPU-Sim PTX: 14900000 instructions simulated : ctaid=(8,0,0) tid=(7,1,0)
GPGPU-Sim uArch: cycles simulated: 34500  inst.: 14520779 (ipc=420.9) sim_rate=337692 (inst/sec) elapsed = 0:0:00:43 / Sun Feb 28 18:47:20 2016
GPGPU-Sim PTX: 15000000 instructions simulated : ctaid=(9,5,0) tid=(8,6,0)
GPGPU-Sim PTX: 15100000 instructions simulated : ctaid=(5,6,0) tid=(4,6,0)
GPGPU-Sim PTX: 15200000 instructions simulated : ctaid=(9,0,0) tid=(9,2,0)
GPGPU-Sim uArch: cycles simulated: 35000  inst.: 14815651 (ipc=423.3) sim_rate=336719 (inst/sec) elapsed = 0:0:00:44 / Sun Feb 28 18:47:21 2016
GPGPU-Sim PTX: 15300000 instructions simulated : ctaid=(8,2,0) tid=(14,6,0)
GPGPU-Sim PTX: 15400000 instructions simulated : ctaid=(4,5,0) tid=(4,0,0)
GPGPU-Sim PTX: 15500000 instructions simulated : ctaid=(5,6,0) tid=(1,7,0)
GPGPU-Sim PTX: 15600000 instructions simulated : ctaid=(9,4,0) tid=(0,6,0)
GPGPU-Sim PTX: 15700000 instructions simulated : ctaid=(9,4,0) tid=(4,1,0)
GPGPU-Sim uArch: cycles simulated: 36000  inst.: 15314003 (ipc=425.4) sim_rate=340311 (inst/sec) elapsed = 0:0:00:45 / Sun Feb 28 18:47:22 2016
GPGPU-Sim PTX: 15800000 instructions simulated : ctaid=(4,5,0) tid=(7,0,0)
GPGPU-Sim PTX: 15900000 instructions simulated : ctaid=(6,1,0) tid=(12,2,0)
GPGPU-Sim uArch: cycles simulated: 36500  inst.: 15514189 (ipc=425.0) sim_rate=337264 (inst/sec) elapsed = 0:0:00:46 / Sun Feb 28 18:47:23 2016
GPGPU-Sim PTX: 16000000 instructions simulated : ctaid=(13,5,0) tid=(11,4,0)
GPGPU-Sim PTX: 16100000 instructions simulated : ctaid=(6,3,0) tid=(14,4,0)
GPGPU-Sim PTX: 16200000 instructions simulated : ctaid=(5,5,0) tid=(5,4,0)
GPGPU-Sim PTX: 16300000 instructions simulated : ctaid=(7,5,0) tid=(8,4,0)
GPGPU-Sim uArch: Shader 14 finished CTA #3 (37411,0), 4 CTAs running
GPGPU-Sim uArch: core: 14, cta: 3 initialized @(37412,0)
GPGPU-Sim uArch: cycles simulated: 37500  inst.: 15949424 (ipc=425.3) sim_rate=339349 (inst/sec) elapsed = 0:0:00:47 / Sun Feb 28 18:47:24 2016
GPGPU-Sim uArch: Shader 13 finished CTA #2 (37518,0), 4 CTAs running
GPGPU-Sim uArch: core: 13, cta: 2 initialized @(37519,0)
GPGPU-Sim PTX: 16400000 instructions simulated : ctaid=(15,6,0) tid=(2,6,0)
GPGPU-Sim PTX: 16500000 instructions simulated : ctaid=(3,6,0) tid=(6,0,0)
GPGPU-Sim PTX: 16600000 instructions simulated : ctaid=(5,6,0) tid=(2,4,0)
GPGPU-Sim uArch: cycles simulated: 38000  inst.: 16180418 (ipc=425.8) sim_rate=337092 (inst/sec) elapsed = 0:0:00:48 / Sun Feb 28 18:47:25 2016
GPGPU-Sim PTX: 16700000 instructions simulated : ctaid=(13,4,0) tid=(15,7,0)
GPGPU-Sim PTX: 16800000 instructions simulated : ctaid=(7,0,0) tid=(3,4,0)
GPGPU-Sim PTX: 16900000 instructions simulated : ctaid=(8,6,0) tid=(5,7,0)
GPGPU-Sim PTX: 17000000 instructions simulated : ctaid=(7,5,0) tid=(9,3,0)
GPGPU-Sim PTX: 17100000 instructions simulated : ctaid=(1,6,0) tid=(2,1,0)
GPGPU-Sim uArch: cycles simulated: 39000  inst.: 16661375 (ipc=427.2) sim_rate=340028 (inst/sec) elapsed = 0:0:00:49 / Sun Feb 28 18:47:26 2016
GPGPU-Sim uArch: Shader 5 finished CTA #1 (39085,0), 4 CTAs running
GPGPU-Sim uArch: core:  5, cta: 1 initialized @(39086,0)
GPGPU-Sim PTX: 17200000 instructions simulated : ctaid=(6,6,0) tid=(13,3,0)
GPGPU-Sim PTX: 17300000 instructions simulated : ctaid=(6,6,0) tid=(15,7,0)
GPGPU-Sim uArch: cycles simulated: 39500  inst.: 16907700 (ipc=428.0) sim_rate=338154 (inst/sec) elapsed = 0:0:00:50 / Sun Feb 28 18:47:27 2016
GPGPU-Sim PTX: 17400000 instructions simulated : ctaid=(7,3,0) tid=(8,7,0)
GPGPU-Sim PTX: 17500000 instructions simulated : ctaid=(13,5,0) tid=(3,6,0)
GPGPU-Sim PTX: 17600000 instructions simulated : ctaid=(7,2,0) tid=(7,3,0)
GPGPU-Sim PTX: 17700000 instructions simulated : ctaid=(2,7,0) tid=(9,2,0)
GPGPU-Sim PTX: 17800000 instructions simulated : ctaid=(6,4,0) tid=(13,3,0)
GPGPU-Sim uArch: cycles simulated: 40500  inst.: 17333581 (ipc=428.0) sim_rate=339874 (inst/sec) elapsed = 0:0:00:51 / Sun Feb 28 18:47:28 2016
GPGPU-Sim uArch: Shader 7 finished CTA #3 (40656,0), 4 CTAs running
GPGPU-Sim uArch: core:  7, cta: 3 initialized @(40657,0)
GPGPU-Sim PTX: 17900000 instructions simulated : ctaid=(4,7,0) tid=(1,0,0)
GPGPU-Sim uArch: Shader 7 finished CTA #4 (40814,0), 4 CTAs running
GPGPU-Sim uArch: core:  7, cta: 4 initialized @(40815,0)
GPGPU-Sim uArch: Shader 12 finished CTA #3 (40860,0), 4 CTAs running
GPGPU-Sim uArch: core: 12, cta: 3 initialized @(40861,0)
GPGPU-Sim PTX: 18000000 instructions simulated : ctaid=(1,6,0) tid=(6,3,0)
GPGPU-Sim PTX: 18100000 instructions simulated : ctaid=(8,5,0) tid=(0,0,0)
GPGPU-Sim uArch: Shader 11 finished CTA #4 (41124,0), 4 CTAs running
GPGPU-Sim uArch: core: 11, cta: 4 initialized @(41125,0)
GPGPU-Sim uArch: Shader 9 finished CTA #3 (41233,0), 4 CTAs running
GPGPU-Sim uArch: core:  9, cta: 3 initialized @(41234,0)
GPGPU-Sim PTX: 18200000 instructions simulated : ctaid=(12,0,0) tid=(4,4,0)
GPGPU-Sim uArch: Shader 4 finished CTA #1 (41453,0), 4 CTAs running
GPGPU-Sim uArch: core:  4, cta: 1 initialized @(41454,0)
GPGPU-Sim uArch: Shader 10 finished CTA #4 (41467,0), 4 CTAs running
GPGPU-Sim uArch: core: 10, cta: 4 initialized @(41468,0)
GPGPU-Sim uArch: cycles simulated: 41500  inst.: 17790424 (ipc=428.7) sim_rate=342123 (inst/sec) elapsed = 0:0:00:52 / Sun Feb 28 18:47:29 2016
GPGPU-Sim uArch: Shader 9 finished CTA #4 (41543,0), 4 CTAs running
[...]
traffic_breakdown_memtocore[LOCAL_ACC_W] = 355560 {8:44445,}
maxmrqlatency = 425 
maxdqlatency = 0 
maxmflatency = 1167 
averagemflatency = 235 
max_icnt2mem_latency = 732 
max_icnt2sh_latency = 140749 
mrq_lat_table:16243 	675 	995 	3631 	4267 	3305 	2300 	550 	42 	0 	0 	0 	0 	0 	0 	0 	0 	0 	0 	0 	0 	0 	0 	0 	0 	0 	0 	0 	0 	0 	0 	0 	
dq_lat_table:0 	0 	0 	0 	0 	0 	0 	0 	0 	0 	0 	0 	0 	0 	0 	0 	0 	0 	0 	0 	0 	0 	0 	0 	0 	0 	0 	0 	0 	0 	0 	0 	
mf_lat_table:0 	0 	0 	0 	0 	0 	0 	49368 	11636 	2761 	30 	0 	0 	0 	0 	0 	0 	0 	0 	0 	0 	0 	0 	0 	0 	0 	0 	0 	0 	0 	0 	0 	
icnt2mem_lat_table:0 	0 	0 	21009 	13784 	14002 	29812 	2638 	906 	107 	0 	0 	0 	0 	0 	0 	0 	0 	0 	0 	0 	0 	0 	0 	
icnt2sh_lat_table:0 	0 	0 	5036 	4125 	1809 	188 	0 	0 	276 	904 	2135 	3285 	2400 	5374 	11274 	23695 	3294 	0 	0 	0 	0 	0 	0 	
mf_lat_pw_table:0 	0 	0 	0 	0 	0 	0 	236 	19 	3 	0 	0 	0 	0 	0 	0 	0 	0 	0 	0 	0 	0 	0 	0 	0 	0 	0 	0 	0 	0 	0 	0 	
maximum concurrent accesses to same row:
dram[0]:        54        56        36        34        26        24        35        22        26        22        22        17        17        23        20        20 
dram[1]:        52        54        34        32        22        24        27        34        26        28        16        22        18        24        20        20 
dram[2]:        62        62        52        52        30        26        28        34        28        33        23        20        20        24        20        22 
dram[3]:        58        60        52        50        24        29        36        39        28        23        17        17        21        17        20        22 
dram[4]:        62        64        56        52        32        28        35        24        24        22        21        23        20        28        24        22 
dram[5]:        58        60        56        46        26        32        25        39        22        24        21        28        14        25        22        21 
maximum service time to same row:
dram[0]:     21249     14854     27860     16642     16498     18136     18617     21416     19089     18759     35963     20509     22815     22461     22562     23803 
dram[1]:     12588     18553     21693     17847     14743     26225     17007     21094     19119     18526     35841     50810     37133     38940     37087     23666 
dram[2]:     22894     19890     16713     30479     16406     18409     19862     32435     18780     19143     20642     20228     23834     47108     20165     35407 
dram[3]:     22515     20503     22160     30905     19344     16270     18390     18231     20914     18745     40073     29981     21740     39959     20366     27963 
dram[4]:     13258     15780     20448     28241     16356     16531     18428     18277     18821     18391     20115     25449     24172     28722     36604     19960 
dram[5]:     10818     15421     16613     23100     15977     25746     17963     17009     18599     18034     17972     31072     31029     28388     36422     20028 
average row accesses per activate:
dram[0]:  5.448276  6.555555  5.653061  4.159420  4.442857  3.375000  4.141177  3.989130  3.978723  3.918605  3.813953  4.320513  4.708333  3.975309  3.933333  4.655738 
dram[1]:  4.756410  4.920635  4.982759  4.117647  3.382353  3.794872  3.046512  3.356436  3.637931  3.900000  3.376238  3.595506  4.032967  3.776471  3.807692  3.720000 
dram[2]:  5.905660  7.000000  5.647059  6.558139  3.329897  4.034091  3.824742  4.666667  4.052083  3.903846  3.414141  3.770115  5.073529  3.765957  4.656250  5.235294 
dram[3]:  5.960000  5.982456  6.177778  5.300000  3.569767  3.204724  3.847826  3.564815  3.893617  3.487180  3.741573  3.015625  3.917647  4.104167  4.774194  4.693548 
dram[4]:  5.467742  5.913793  6.041667  5.508772  3.787234  3.548387  4.402597  3.450450  3.526786  3.727273  3.975000  3.857143  3.650000  4.056180  4.377049  4.734375 
dram[5]:  4.955883  6.132075  5.862745  5.888889  3.415094  3.913580  3.330508  3.589474  3.140496  3.458716  3.544554  3.960000  3.581818  4.220930  3.586957  4.288136 
average row locality = 32008/7812 = 4.097286
number of total memory accesses made:
dram[0]:         0         0         0         0         0         0         0         0         0         0         0         0         0         0         0         0 
dram[1]:         0         0         0         0         0         0         0         0         0         0         0         0         0         0         0         0 
dram[2]:         0         0         0         0         0         0         0         0         0         0         0         0         0         0         0         0 
dram[3]:         0         0         0         0         0         0         0         0         0         0         0         0         0         0         0         0 
dram[4]:         0         0         0         0         0         0         0         0         0         0         0         0         0         0         0         0 
dram[5]:         0         0         0         0         0         0         0         0         0         0         0         0         0         0         0         0 
total accesses: 0
min_bank_accesses = 0!
min_chip_accesses = 0!
number of total read accesses:
dram[0]:       138       129       119       121       124       125       142       147       154       139       130       143       146       137       129       128 
dram[1]:       161       136       124       117       142       124       161       134       175       144       139       131       154       139       128       126 
dram[2]:       138       144       125       122       134       145       152       124       161       164       141       132       145       148       129       122 
dram[3]:       133       149       121       134       124       169       141       157       147       168       134       160       142       164       132       126 
dram[4]:       148       149       126       134       148       134       136       159       162       152       129       135       157       153       120       135 
dram[5]:       146       144       131       116       150       129       161       137       158       152       147       120       169       159       143       116 
total reads: 13468
bank skew: 175/116 = 1.51
chip skew: 2301/2151 = 1.07
number of total write accesses:
dram[0]:       178       166       158       166       187       172       210       220       220       198       198       194       193       185       166       156 
dram[1]:       210       174       165       163       203       172       232       205       247       207       202       189       213       182       169       153 
dram[2]:       175       178       163       160       189       210       219       184       228       242       197       196       200       206       169       145 
dram[3]:       165       192       157       184       183       238       213       228       219       240       199       226       191       230       164       165 
dram[4]:       191       194       164       180       208       196       203       224       233       217       189       189       208       208       147       168 
dram[5]:       191       181       168       149       212       188       232       204       222       225       211       177       225       204       187       137 
total reads: 18540
bank skew: 247/137 = 1.80
chip skew: 3194/2967 = 1.08
average mf latency per bank:
dram[0]:        493       423       497       481       472       478       523       492       478       519       519       530       508       521       491       517
dram[1]:        442       426       451       471       418       473       446       511       407       485       491       534       456       517       463       499
dram[2]:        462       476       484       492       457       432       460       578       441       413       471       493       480       439       471       528
dram[3]:        436       435       511       439       468       363       492       439       453       405       502       427       464       406       482       469
dram[4]:        430       383       500       460       423       459       533       458       470       469       536       553       464       474       543       492
dram[5]:        422       415       488       495       391       460       451       529       463       449       460       570       418       449       432       554
maximum mf latency per bank:
dram[0]:        912       740      1107       907      1094      1114       906      1090       912      1004       836       714       902       697       864       767
dram[1]:        669       698       874       845       754       678       786       953       772       745       715       650       656       630       710       633
dram[2]:        903       817      1091      1018      1070       923      1038       923       962       913       772       921       834       708       799       744
dram[3]:        819       779      1151       931       893       887       929       896       829       835       859       837       753       775       808       859
dram[4]:        873       909      1086      1167      1045       996       994      1116      1084      1024       947       971       971       966      1022      1050
dram[5]:        958       808      1067       969       985       976       993       986      1022       931       941       926       754       711       709       973

Number of Memory Banks Accessed per Memory Operation per Warp (from 0):
0	0	0	0	0	0	0	0	0	0	0	0	0	0	0	0	0	0	0	0	0	0	0	0	0	0	0	0	0	0	0	0	0	0	0	0	0	0	0	0	0	0	0	0	0	0	0	0	0	0	0	0	0	0	0	0	0	0	0	0	0	0	0	0	0	0	0	0	0	0	0	0	0	0	0	0	0	0	0	0	0	0	0	0	0	0	0	0	0	0	0	0	0	0	0	0	
Average # of Memory Banks Accessed per Memory Operation per Warp=-nan

position of mrq chosen
0	0	0	0	0	0	0	0	0	0	0	0	0	0	0	0	

average position of mrq chosen = -nan
Memory Partition 0: 
Cache L2_bank_000:
MSHR contents

Cache L2_bank_001:
MSHR contents

In Dram Latency Queue (total = 0): 
DRAM[0]: 16 bks, busW=8 BL=8 CL=12, tRRD=2 tCCD=6, tRCD=12 tRAS=28 tRP=12 tRC=40
n_cmd=185789 n_nop=178309 n_act=1189 n_pre=1173 n_req=5118 n_rd=2151 n_write=2967 bw_util=0.05509
n_activity=43293 dram_eff=0.2364
bk0: 138a 180401i bk1: 129a 180880i bk2: 119a 180702i bk3: 121a 180247i bk4: 124a 179750i bk5: 125a 179027i bk6: 142a 178582i bk7: 147a 178449i bk8: 154a 178514i bk9: 139a 179254i bk10: 130a 179165i bk11: 143a 178897i bk12: 146a 178855i bk13: 137a 179194i bk14: 129a 179920i bk15: 128a 179988i 
dram_util_bins: 0 0 0 0 0 0 0 0 0 0
dram_eff_bins: 0 0 0 0 0 0 0 0 0 0
mrqq: max=16 avg=0.703567
Memory Partition 1: 
Cache L2_bank_002:
MSHR contents

Cache L2_bank_003:
MSHR contents

In Dram Latency Queue (total = 0): 
DRAM[1]: 16 bks, busW=8 BL=8 CL=12, tRRD=2 tCCD=6, tRCD=12 tRAS=28 tRP=12 tRC=40
n_cmd=185789 n_nop=177680 n_act=1402 n_pre=1386 n_req=5321 n_rd=2235 n_write=3086 bw_util=0.05728
n_activity=47140 dram_eff=0.2258
bk0: 161a 179315i bk1: 136a 180539i bk2: 124a 180312i bk3: 117a 180098i bk4: 142a 178469i bk5: 124a 179158i bk6: 161a 177595i bk7: 134a 178354i bk8: 175a 177845i bk9: 144a 179320i bk10: 139a 178767i bk11: 131a 178793i bk12: 154a 178344i bk13: 139a 178535i bk14: 128a 179626i bk15: 126a 179827i 
dram_util_bins: 0 0 0 0 0 0 0 0 0 0
dram_eff_bins: 0 0 0 0 0 0 0 0 0 0
mrqq: max=16 avg=0.67764
Memory Partition 2: 
Cache L2_bank_004:
MSHR contents

Cache L2_bank_005:
MSHR contents

In Dram Latency Queue (total = 0): 
DRAM[2]: 16 bks, busW=8 BL=8 CL=12, tRRD=2 tCCD=6, tRCD=12 tRAS=28 tRP=12 tRC=40
n_cmd=185789 n_nop=178110 n_act=1204 n_pre=1188 n_req=5287 n_rd=2226 n_write=3061 bw_util=0.05691
n_activity=45883 dram_eff=0.2305
bk0: 138a 180819i bk1: 144a 180777i bk2: 125a 180694i bk3: 122a 180591i bk4: 134a 179054i bk5: 145a 178682i bk6: 152a 177866i bk7: 124a 179075i bk8: 161a 178206i bk9: 164a 177939i bk10: 141a 178611i bk11: 132a 178881i bk12: 145a 179144i bk13: 148a 178256i bk14: 129a 179909i bk15: 122a 180242i 
dram_util_bins: 0 0 0 0 0 0 0 0 0 0
dram_eff_bins: 0 0 0 0 0 0 0 0 0 0
mrqq: max=16 avg=0.71733
Memory Partition 3: 
Cache L2_bank_006:
MSHR contents

Cache L2_bank_007:
MSHR contents

In Dram Latency Queue (total = 0): 
DRAM[3]: 16 bks, busW=8 BL=8 CL=12, tRRD=2 tCCD=6, tRCD=12 tRAS=28 tRP=12 tRC=40
n_cmd=185789 n_nop=177594 n_act=1358 n_pre=1342 n_req=5495 n_rd=2301 n_write=3194 bw_util=0.05915
n_activity=47908 dram_eff=0.2294
bk0: 133a 180830i bk1: 149a 180605i bk2: 121a 181022i bk3: 134a 180250i bk4: 124a 179441i bk5: 169a 177565i bk6: 141a 178197i bk7: 157a 177542i bk8: 147a 179113i bk9: 168a 177888i bk10: 134a 178619i bk11: 160a 177956i bk12: 142a 178718i bk13: 164a 177713i bk14: 132a 179973i bk15: 126a 180026i 
dram_util_bins: 0 0 0 0 0 0 0 0 0 0
dram_eff_bins: 0 0 0 0 0 0 0 0 0 0
mrqq: max=16 avg=0.71783
Memory Partition 4: 
Cache L2_bank_008:
MSHR contents

Cache L2_bank_009:
MSHR contents

In Dram Latency Queue (total = 0): 
DRAM[4]: 16 bks, busW=8 BL=8 CL=12, tRRD=2 tCCD=6, tRCD=12 tRAS=28 tRP=12 tRC=40
n_cmd=185789 n_nop=177831 n_act=1289 n_pre=1273 n_req=5396 n_rd=2277 n_write=3119 bw_util=0.05809
n_activity=48592 dram_eff=0.2221
bk0: 148a 180174i bk1: 149a 180249i bk2: 126a 180755i bk3: 134a 180314i bk4: 148a 178725i bk5: 134a 179091i bk6: 136a 178659i bk7: 159a 177881i bk8: 162a 177971i bk9: 152a 178285i bk10: 129a 179083i bk11: 135a 179176i bk12: 157a 178446i bk13: 153a 178411i bk14: 120a 180266i bk15: 135a 179719i 
dram_util_bins: 0 0 0 0 0 0 0 0 0 0
dram_eff_bins: 0 0 0 0 0 0 0 0 0 0
mrqq: max=16 avg=0.714257
Memory Partition 5: 
Cache L2_bank_010:
MSHR contents

Cache L2_bank_011:
MSHR contents

In Dram Latency Queue (total = 0): 
DRAM[5]: 16 bks, busW=8 BL=8 CL=12, tRRD=2 tCCD=6, tRCD=12 tRAS=28 tRP=12 tRC=40
n_cmd=185789 n_nop=177674 n_act=1370 n_pre=1354 n_req=5391 n_rd=2278 n_write=3113 bw_util=0.05803
n_activity=49174 dram_eff=0.2193
bk0: 146a 180159i bk1: 144a 180689i bk2: 131a 180831i bk3: 116a 181115i bk4: 150a 178706i bk5: 129a 179314i bk6: 161a 177693i bk7: 137a 178503i bk8: 158a 178193i bk9: 152a 178376i bk10: 147a 178642i bk11: 120a 179442i bk12: 169a 177825i bk13: 159a 178542i bk14: 143a 179112i bk15: 116a 180525i 
dram_util_bins: 0 0 0 0 0 0 0 0 0 0
dram_eff_bins: 0 0 0 0 0 0 0 0 0 0
mrqq: max=16 avg=0.694632

========= L2 cache stats =========
L2_cache_bank[0]: Access = 6849, Miss = 1082, Miss_rate = 0.158, Pending_hits = 96, Reservation_fails = 752
L2_cache_bank[1]: Access = 6917, Miss = 1069, Miss_rate = 0.155, Pending_hits = 84, Reservation_fails = 504
L2_cache_bank[2]: Access = 6787, Miss = 1184, Miss_rate = 0.174, Pending_hits = 84, Reservation_fails = 865
L2_cache_bank[3]: Access = 6788, Miss = 1051, Miss_rate = 0.155, Pending_hits = 68, Reservation_fails = 398
L2_cache_bank[4]: Access = 6571, Miss = 1125, Miss_rate = 0.171, Pending_hits = 83, Reservation_fails = 713
L2_cache_bank[5]: Access = 6852, Miss = 1101, Miss_rate = 0.161, Pending_hits = 77, Reservation_fails = 509
L2_cache_bank[6]: Access = 6772, Miss = 1074, Miss_rate = 0.159, Pending_hits = 70, Reservation_fails = 437
L2_cache_bank[7]: Access = 7051, Miss = 1227, Miss_rate = 0.174, Pending_hits = 55, Reservation_fails = 317
L2_cache_bank[8]: Access = 7095, Miss = 1126, Miss_rate = 0.159, Pending_hits = 86, Reservation_fails = 465
L2_cache_bank[9]: Access = 6808, Miss = 1151, Miss_rate = 0.169, Pending_hits = 82, Reservation_fails = 290
L2_cache_bank[10]: Access = 6998, Miss = 1205, Miss_rate = 0.172, Pending_hits = 68, Reservation_fails = 905
L2_cache_bank[11]: Access = 6770, Miss = 1073, Miss_rate = 0.158, Pending_hits = 78, Reservation_fails = 629
L2_total_cache_accesses = 82258
L2_total_cache_misses = 13468
L2_total_cache_miss_rate = 0.1637
L2_total_cache_pending_hits = 931
L2_total_cache_reservation_fails = 6784
L2_total_cache_breakdown:
	L2_cache_stats_breakdown[GLOBAL_ACC_R][HIT] = 3609
	L2_cache_stats_breakdown[GLOBAL_ACC_R][HIT_RESERVED] = 12
	L2_cache_stats_breakdown[GLOBAL_ACC_R][MISS] = 173
	L2_cache_stats_breakdown[GLOBAL_ACC_R][RESERVATION_FAIL] = 255
	L2_cache_stats_breakdown[LOCAL_ACC_R][HIT] = 6754
	L2_cache_stats_breakdown[LOCAL_ACC_R][HIT_RESERVED] = 125
	L2_cache_stats_breakdown[LOCAL_ACC_R][MISS] = 455
	L2_cache_stats_breakdown[CONST_ACC_R][HIT] = 22
	L2_cache_stats_breakdown[CONST_ACC_R][HIT_RESERVED] = 6
	L2_cache_stats_breakdown[CONST_ACC_R][MISS] = 2
	L2_cache_stats_breakdown[CONST_ACC_R][RESERVATION_FAIL] = 356
	L2_cache_stats_breakdown[GLOBAL_ACC_W][HIT] = 5521
	L2_cache_stats_breakdown[GLOBAL_ACC_W][HIT_RESERVED] = 623
	L2_cache_stats_breakdown[GLOBAL_ACC_W][MISS] = 2048
	L2_cache_stats_breakdown[GLOBAL_ACC_W][RESERVATION_FAIL] = 104
	L2_cache_stats_breakdown[LOCAL_ACC_W][HIT] = 35039
	L2_cache_stats_breakdown[LOCAL_ACC_W][HIT_RESERVED] = 11
	L2_cache_stats_breakdown[LOCAL_ACC_W][MISS] = 9395
	L2_cache_stats_breakdown[LOCAL_ACC_W][RESERVATION_FAIL] = 815
	L2_cache_stats_breakdown[L1_WRBK_ACC][HIT] = 3655
	L2_cache_stats_breakdown[L1_WRBK_ACC][MISS] = 1343
	L2_cache_stats_breakdown[INST_ACC_R][HIT] = 13259
	L2_cache_stats_breakdown[INST_ACC_R][HIT_RESERVED] = 154
	L2_cache_stats_breakdown[INST_ACC_R][MISS] = 52
	L2_cache_stats_breakdown[INST_ACC_R][RESERVATION_FAIL] = 5254
L2_cache_data_port_util = 0.154
L2_cache_fill_port_util = 0.032

icnt_total_pkts_mem_to_simt=175692
icnt_total_pkts_simt_to_mem=293281
LD_mem_lat_dist  0 0 0 0 0 0 0 0 0 0 0 0 0 0 0 0 0 0 0 0 0 0 0 0 0 0 0
ST_mem_lat_dist  0 0 0 0 0 0 0 0 0 0 0 0 0 0 0 0 0 0 0 0 0 0 0 0 0 0 0
----------------------------Interconnect-DETAILS--------------------------------
Class 0:
Packet latency average = 16.2285
	minimum = 6
	maximum = 533
Network latency average = 12.7998
	minimum = 6
	maximum = 526
Slowest packet = 5553
Flit latency average = 11.6731
	minimum = 6
	maximum = 524
Slowest flit = 17395
Fragmentation average = 0.0370867
	minimum = 0
	maximum = 417
Injected packet rate average = 0.0419757
	minimum = 0.036405 (at node 8)
	maximum = 0.0474032 (at node 23)
Accepted packet rate average = 0.0419757
	minimum = 0.0344298 (at node 8)
	maximum = 0.0504085 (at node 23)
Injected flit rate average = 0.123406
	minimum = 0.0980462 (at node 19)
	maximum = 0.154117 (at node 2)
Accepted flit rate average= 0.123406
	minimum = 0.0674316 (at node 0)
	maximum = 0.178899 (at node 23)
Injected packet length average = 2.93994
Accepted packet length average = 2.93994
Total in-flight flits = 0 (0 measured)
====== Overall Traffic Statistics ======
====== Traffic class 0 ======
Packet latency average = 16.2285 (1 samples)
	minimum = 6 (1 samples)
	maximum = 533 (1 samples)
Network latency average = 12.7998 (1 samples)
	minimum = 6 (1 samples)
	maximum = 526 (1 samples)
Flit latency average = 11.6731 (1 samples)
	minimum = 6 (1 samples)
	maximum = 524 (1 samples)
Fragmentation average = 0.0370867 (1 samples)
	minimum = 0 (1 samples)
	maximum = 417 (1 samples)
Injected packet rate average = 0.0419757 (1 samples)
	minimum = 0.036405 (1 samples)
	maximum = 0.0474032 (1 samples)
Accepted packet rate average = 0.0419757 (1 samples)
	minimum = 0.0344298 (1 samples)
	maximum = 0.0504085 (1 samples)
Injected flit rate average = 0.123406 (1 samples)
	minimum = 0.0980462 (1 samples)
	maximum = 0.154117 (1 samples)
Accepted flit rate average = 0.123406 (1 samples)
	minimum = 0.0674316 (1 samples)
	maximum = 0.178899 (1 samples)
Injected packet size average = 2.93994 (1 samples)
Accepted packet size average = 2.93994 (1 samples)
Hops average = 1 (1 samples)
----------------------------END-of-Interconnect-DETAILS-------------------------


gpgpu_simulation_time = 0 days, 0 hrs, 3 min, 11 sec (191 sec)
gpgpu_simulation_rate = 328181 (inst/sec)
gpgpu_simulation_rate = 736 (cycle/sec)
GPGPU-Sim API: Stream Manager State
GPGPU-Sim: detected inactive GPU simulation thread

checksum=75ef40cb5b8e
Kernel Time: 190436.125000 
