

        *** GPGPU-Sim Simulator Version 3.2.2  [build 0] ***


GPGPU-Sim PTX: simulation mode 0 (can change with PTX_SIM_MODE_FUNC environment variable:
               1=functional simulation only, 0=detailed performance simulator)
GPGPU-Sim: Configuration options:

-network_mode                           1 # Interconnection network mode
-inter_config_file   config_fermi_islip.icnt # Interconnection network config file
-gpgpu_ptx_use_cuobjdump                    1 # Use cuobjdump to extract ptx and sass from binaries
-gpgpu_experimental_lib_support                    0 # Try to extract code from cuda libraries [Broken because of unknown cudaGetExportTable]
-gpgpu_ptx_convert_to_ptxplus                    0 # Convert SASS (native ISA) to ptxplus and run ptxplus
-gpgpu_ptx_force_max_capability                   20 # Force maximum compute capability
-gpgpu_ptx_inst_debug_to_file                    0 # Dump executed instructions' debug information to file
-gpgpu_ptx_inst_debug_file       inst_debug.txt # Executed instructions' debug output file
-gpgpu_ptx_inst_debug_thread_uid                    1 # Thread UID for executed instructions' debug output
-gpgpu_simd_model                       1 # 1 = post-dominator
-gpgpu_shader_core_pipeline              1536:32 # shader core pipeline config, i.e., {<nthread>:<warpsize>}
-gpgpu_tex_cache:l1  4:128:24,L:R:m:N:L,F:128:4,128:2 # per-shader L1 texture cache  (READ-ONLY) config  {<nsets>:<bsize>:<assoc>,<rep>:<wr>:<alloc>:<wr_alloc>,<mshr>:<N>:<merge>,<mq>:<rf>}
-gpgpu_const_cache:l1 64:64:2,L:R:f:N:L,A:2:32,4 # per-shader L1 constant memory cache  (READ-ONLY) config  {<nsets>:<bsize>:<assoc>,<rep>:<wr>:<alloc>:<wr_alloc>,<mshr>:<N>:<merge>,<mq>} 
-gpgpu_cache:il1     4:128:4,L:R:f:N:L,A:2:32,4 # shader L1 instruction cache config  {<nsets>:<bsize>:<assoc>,<rep>:<wr>:<alloc>:<wr_alloc>,<mshr>:<N>:<merge>,<mq>} 
-gpgpu_cache:dl1     32:128:4,L:L:m:N:H,A:32:8,8 # per-shader L1 data cache config  {<nsets>:<bsize>:<assoc>,<rep>:<wr>:<alloc>:<wr_alloc>,<mshr>:<N>:<merge>,<mq> | none}
-gpgpu_cache:dl1PrefL1                 none # per-shader L1 data cache config  {<nsets>:<bsize>:<assoc>,<rep>:<wr>:<alloc>:<wr_alloc>,<mshr>:<N>:<merge>,<mq> | none}
-gpgpu_cache:dl1PreShared                 none # per-shader L1 data cache config  {<nsets>:<bsize>:<assoc>,<rep>:<wr>:<alloc>:<wr_alloc>,<mshr>:<N>:<merge>,<mq> | none}
-gmem_skip_L1D                          0 # global memory access skip L1D cache (implements -Xptxas -dlcm=cg, default=no skip)
-gpgpu_perfect_mem                      0 # enable perfect memory mode (no cache miss)
-n_regfile_gating_group                    4 # group of lanes that should be read/written together)
-gpgpu_clock_gated_reg_file                    0 # enable clock gated reg file for power calculations
-gpgpu_clock_gated_lanes                    0 # enable clock gated lanes for power calculations
-gpgpu_shader_registers                32768 # Number of registers per shader core. Limits number of concurrent CTAs. (default 8192)
-gpgpu_shader_cta                       8 # Maximum number of concurrent CTAs in shader (default 8)
-gpgpu_num_cta_barriers                   16 # Maximum number of named barriers per CTA (default 16)
-gpgpu_n_clusters                      15 # number of processing clusters
-gpgpu_n_cores_per_cluster                    1 # number of simd cores per cluster
-gpgpu_n_cluster_ejection_buffer_size                    8 # number of packets in ejection buffer
-gpgpu_n_ldst_response_buffer_size                    2 # number of response packets in ld/st unit ejection buffer
-gpgpu_shmem_size                   16384 # Size of shared memory per shader core (default 16kB)
-gpgpu_shmem_size                   49152 # Size of shared memory per shader core (default 16kB)
-gpgpu_shmem_size_PrefL1                16384 # Size of shared memory per shader core (default 16kB)
-gpgpu_shmem_size_PrefShared                16384 # Size of shared memory per shader core (default 16kB)
-gpgpu_shmem_num_banks                   32 # Number of banks in the shared memory in each shader core (default 16)
-gpgpu_shmem_limited_broadcast                    0 # Limit shared memory to do one broadcast per cycle (default on)
-gpgpu_shmem_warp_parts                    1 # Number of portions a warp is divided into for shared memory bank conflict check 
-gpgpu_warpdistro_shader                   -1 # Specify which shader core to collect the warp size distribution from
-gpgpu_warp_issue_shader                    0 # Specify which shader core to collect the warp issue distribution from
-gpgpu_local_mem_map                    1 # Mapping from local memory space address to simulated GPU physical address space (default = enabled)
-gpgpu_num_reg_banks                   16 # Number of register banks (default = 8)
-gpgpu_reg_bank_use_warp_id                    0 # Use warp ID in mapping registers to banks (default = off)
-gpgpu_operand_collector_num_units_sp                    6 # number of collector units (default = 4)
-gpgpu_operand_collector_num_units_sfu                    8 # number of collector units (default = 4)
-gpgpu_operand_collector_num_units_mem                    2 # number of collector units (default = 2)
-gpgpu_operand_collector_num_units_gen                    0 # number of collector units (default = 0)
-gpgpu_operand_collector_num_in_ports_sp                    2 # number of collector unit in ports (default = 1)
-gpgpu_operand_collector_num_in_ports_sfu                    1 # number of collector unit in ports (default = 1)
-gpgpu_operand_collector_num_in_ports_mem                    1 # number of collector unit in ports (default = 1)
-gpgpu_operand_collector_num_in_ports_gen                    0 # number of collector unit in ports (default = 0)
-gpgpu_operand_collector_num_out_ports_sp                    2 # number of collector unit in ports (default = 1)
-gpgpu_operand_collector_num_out_ports_sfu                    1 # number of collector unit in ports (default = 1)
-gpgpu_operand_collector_num_out_ports_mem                    1 # number of collector unit in ports (default = 1)
-gpgpu_operand_collector_num_out_ports_gen                    0 # number of collector unit in ports (default = 0)
-gpgpu_coalesce_arch                   13 # Coalescing arch (default = 13, anything else is off for now)
-gpgpu_num_sched_per_core                    2 # Number of warp schedulers per core
-gpgpu_max_insn_issue_per_warp                    1 # Max number of instructions that can be issued per warp in one cycle by scheduler
-gpgpu_simt_core_sim_order                    1 # Select the simulation order of cores in a cluster (0=Fix, 1=Round-Robin)
-gpgpu_pipeline_widths        2,1,1,2,1,1,2 # Pipeline widths ID_OC_SP,ID_OC_SFU,ID_OC_MEM,OC_EX_SP,OC_EX_SFU,OC_EX_MEM,EX_WB
-gpgpu_num_sp_units                     2 # Number of SP units (default=1)
-gpgpu_num_sfu_units                    1 # Number of SF units (default=1)
-gpgpu_num_mem_units                    1 # Number if ldst units (default=1) WARNING: not hooked up to anything
-gpgpu_scheduler                      gto # Scheduler configuration: < lrr | gto | two_level_active > If two_level_active:<num_active_warps>:<inner_prioritization>:<outer_prioritization>For complete list of prioritization values see shader.h enum scheduler_prioritization_typeDefault: gto
-gpgpu_dram_scheduler                    1 # 0 = fifo, 1 = FR-FCFS (defaul)
-gpgpu_dram_partition_queues              8:8:8:8 # i2$:$2d:d2$:$2i
-l2_ideal                               0 # Use a ideal L2 cache that always hit
-gpgpu_cache:dl2     64:128:8,L:B:m:W:L,A:32:4,4:0,32 # unified banked L2 data cache config  {<nsets>:<bsize>:<assoc>,<rep>:<wr>:<alloc>:<wr_alloc>,<mshr>:<N>:<merge>,<mq>}
-gpgpu_cache:dl2_texture_only                    0 # L2 cache used for texture only
-gpgpu_n_mem                            6 # number of memory modules (e.g. memory controllers) in gpu
-gpgpu_n_sub_partition_per_mchannel                    2 # number of memory subpartition in each memory module
-gpgpu_n_mem_per_ctrlr                    2 # number of memory chips per memory controller
-gpgpu_memlatency_stat                   14 # track and display latency statistics 0x2 enables MC, 0x4 enables queue logs
-gpgpu_frfcfs_dram_sched_queue_size                   16 # 0 = unlimited (default); # entries per chip
-gpgpu_dram_return_queue_size                  116 # 0 = unlimited (default); # entries per chip
-gpgpu_dram_buswidth                    4 # default = 4 bytes (8 bytes per cycle at DDR)
-gpgpu_dram_burst_length                    8 # Burst length of each DRAM request (default = 4 data bus cycle)
-dram_data_command_freq_ratio                    4 # Frequency ratio between DRAM data bus and command bus (default = 2 times, i.e. DDR)
-gpgpu_dram_timing_opt nbk=16:CCD=2:RRD=6:RCD=12:RAS=28:RP=12:RC=40: CL=12:WL=4:CDLR=5:WR=12:nbkgrp=4:CCDL=3:RTPL=2 # DRAM timing parameters = {nbk:tCCD:tRRD:tRCD:tRAS:tRP:tRC:CL:WL:tCDLR:tWR:nbkgrp:tCCDL:tRTPL}
-rop_latency                          120 # ROP queue latency (default 85)
-dram_latency                         100 # DRAM latency (default 30)
-gpgpu_mem_addr_mapping dramid@8;00000000.00000000.00000000.00000000.0000RRRR.RRRRRRRR.BBBCCCCB.CCSSSSSS # mapping memory address to dram model {dramid@<start bit>;<memory address map>}
-gpgpu_mem_addr_test                    0 # run sweep test to check address mapping for aliased address
-gpgpu_mem_address_mask                    1 # 0 = old addressing mask, 1 = new addressing mask, 2 = new add. mask + flipped bank sel and chip sel bits
-gpuwattch_xml_file  gpuwattch_gtx480.xml # GPUWattch XML file
-power_simulation_enabled                    0 # Turn on power simulator (1=On, 0=Off)
-power_per_cycle_dump                    0 # Dump detailed power output each cycle
-power_trace_enabled                    0 # produce a file for the power trace (1=On, 0=Off)
-power_trace_zlevel                     6 # Compression level of the power trace output log (0=no comp, 9=highest)
-steady_power_levels_enabled                    0 # produce a file for the steady power levels (1=On, 0=Off)
-steady_state_definition                  8:4 # allowed deviation:number of samples
-gpgpu_max_cycle                        0 # terminates gpu simulation early (0 = no limit)
-gpgpu_max_insn                         0 # terminates gpu simulation early (0 = no limit)
-gpgpu_max_cta                          0 # terminates gpu simulation early (0 = no limit)
-gpgpu_runtime_stat                   500 # display runtime statistics such as dram utilization {<freq>:<flag>}
-liveness_message_freq                    1 # Minimum number of seconds between simulation liveness messages (0 = always print)
-gpgpu_flush_l1_cache                    0 # Flush L1 cache at the end of each kernel call
-gpgpu_flush_l2_cache                    0 # Flush L2 cache at the end of each kernel call
-gpgpu_deadlock_detect                    1 # Stop the simulation at deadlock (1=on (default), 0=off)
-gpgpu_ptx_instruction_classification                    0 # if enabled will classify ptx instruction types per kernel (Max 255 kernels now)
-gpgpu_ptx_sim_mode                     0 # Select between Performance (default) or Functional simulation (1)
-gpgpu_clock_domains 700.0:700.0:700.0:924.0 # Clock Domain Frequencies in MhZ {<Core Clock>:<ICNT Clock>:<L2 Clock>:<DRAM Clock>}
-gpgpu_max_concurrent_kernel                    8 # maximum kernels that can run concurrently on GPU
-gpgpu_cflog_interval                    0 # Interval between each snapshot in control flow logger
-visualizer_enabled                     0 # Turn on visualizer output (1=On, 0=Off)
-visualizer_outputfile                 NULL # Specifies the output log file for visualizer
-visualizer_zlevel                      6 # Compression level of the visualizer output log (0=no comp, 9=highest)
-trace_enabled                          0 # Turn on traces
-trace_components                    none # comma seperated list of traces to enable. Complete list found in trace_streams.tup. Default none
-trace_sampling_core                    0 # The core which is printed using CORE_DPRINTF. Default 0
-trace_sampling_memory_partition                   -1 # The memory partition which is printed using MEMPART_DPRINTF. Default -1 (i.e. all)
-enable_ptx_file_line_stats                    1 # Turn on PTX source line statistic profiling. (1 = On)
-ptx_line_stats_filename gpgpu_inst_stats.txt # Output file for PTX source line statistics.
-save_embedded_ptx                      0 # saves ptx files embedded in binary as <n>.ptx
-keep                                   0 # keep intermediate files created by GPGPU-Sim when interfacing with external programs
-gpgpu_ptx_save_converted_ptxplus                    0 # Saved converted ptxplus to a file
-ptx_opcode_latency_int         4,13,4,5,145 # Opcode latencies for integers <ADD,MAX,MUL,MAD,DIV>Default 1,1,19,25,145
-ptx_opcode_latency_fp          4,13,4,5,39 # Opcode latencies for single precision floating points <ADD,MAX,MUL,MAD,DIV>Default 1,1,1,1,30
-ptx_opcode_latency_dp         8,19,8,8,330 # Opcode latencies for double precision floating points <ADD,MAX,MUL,MAD,DIV>Default 8,8,8,8,335
-ptx_opcode_initiation_int            1,2,2,1,8 # Opcode initiation intervals for integers <ADD,MAX,MUL,MAD,DIV>Default 1,1,4,4,32
-ptx_opcode_initiation_fp            1,2,1,1,4 # Opcode initiation intervals for single precision floating points <ADD,MAX,MUL,MAD,DIV>Default 1,1,1,1,5
-ptx_opcode_initiation_dp         8,16,8,8,130 # Opcode initiation intervals for double precision floating points <ADD,MAX,MUL,MAD,DIV>Default 8,8,8,8,130
DRAM Timing Options:
nbk                                    16 # number of banks
CCD                                     2 # column to column delay
RRD                                     6 # minimal delay between activation of rows in different banks
RCD                                    12 # row to column delay
RAS                                    28 # time needed to activate row
RP                                     12 # time needed to precharge (deactivate) row
RC                                     40 # row cycle time
CDLR                                    5 # switching from write to read (changes tWTR)
WR                                     12 # last data-in to row precharge
CL                                     12 # CAS latency
WL                                      4 # Write latency
nbkgrp                                  4 # number of bank groups
CCDL                                    3 # column to column delay between accesses to different bank groups
RTPL                                    2 # read to precharge delay between accesses to different bank groups
Total number of memory sub partition = 12
addr_dec_mask[CHIP]  = 0000000000000000 	high:64 low:0
addr_dec_mask[BK]    = 000000000000e100 	high:16 low:8
addr_dec_mask[ROW]   = 000000000fff0000 	high:28 low:16
addr_dec_mask[COL]   = 0000000000001eff 	high:13 low:0
addr_dec_mask[BURST] = 000000000000003f 	high:6 low:0
sub_partition_id_mask = 0000000000000100
GPGPU-Sim uArch: clock freqs: 700000000.000000:700000000.000000:700000000.000000:924000000.000000
GPGPU-Sim uArch: clock periods: 0.00000000142857142857:0.00000000142857142857:0.00000000142857142857:0.00000000108225108225
*** Initializing Memory Statistics ***
GPGPU-Sim uArch: interconnect node map (shaderID+MemID to icntID)
GPGPU-Sim uArch: Memory nodes ID start from index: 15
GPGPU-Sim uArch:    0   1   2   3   4
GPGPU-Sim uArch:    5   6   7   8   9
GPGPU-Sim uArch:   10  11  12  13  14
GPGPU-Sim uArch:   15  16  17  18  19
GPGPU-Sim uArch:   20  21  22  23  24
GPGPU-Sim uArch:   25  26
GPGPU-Sim uArch: interconnect node reverse map (icntID to shaderID+MemID)
GPGPU-Sim uArch: Memory nodes start from ID: 15
GPGPU-Sim uArch:    0   1   2   3   4
GPGPU-Sim uArch:    5   6   7   8   9
GPGPU-Sim uArch:   10  11  12  13  14
GPGPU-Sim uArch:   15  16  17  18  19
GPGPU-Sim uArch:   20  21  22  23  24
GPGPU-Sim uArch:   25  26
3d035f1c221dff4c1b059f7701634ea5  /sciclone/data20/adwait/applications/benchmarks/CUDA/SCP/gpgpu_ptx_sim__SCP
GPGPU-Sim uArch: performance model initialization complete.
GPGPU-Sim PTX: __cudaRegisterFatBinary, fat_cubin_handle = 1, filename=scalarProd.cu
self exe links to: /sciclone/data20/adwait/applications/benchmarks/CUDA/SCP/gpgpu_ptx_sim__SCP
Running md5sum using "md5sum /sciclone/data20/adwait/applications/benchmarks/CUDA/SCP/gpgpu_ptx_sim__SCP "
Parsing file _cuobjdump_complete_output_zstGoz
######### cuobjdump parser ########
## Adding new section ELF
Adding arch: sm_20
Adding identifier: scalarProd.cu
## Adding new section PTX
Adding ptx filename: _cuobjdump_1.ptx
Adding arch: sm_20
Adding identifier: scalarProd.cu
Done parsing!!!
GPGPU-Sim PTX: __cudaRegisterFunction _Z13scalarProdGPUPfS_S_ii : hostFun 0x0x404ea1, fat_cubin_handle = 1
GPGPU-Sim PTX: allocating shared region for "__cuda___cuda_local_var_42258_35_non_const_accumResult32" from 0x0 to 0x1000 (shared memory space)
GPGPU-Sim PTX: instruction assembly for function '_Z13scalarProdGPUPfS_S_ii'...   done.
GPGPU-Sim PTX: finding reconvergence points for '_Z13scalarProdGPUPfS_S_ii'...
GPGPU-Sim PTX: Finding dominators for '_Z13scalarProdGPUPfS_S_ii'...
GPGPU-Sim PTX: Finding immediate dominators for '_Z13scalarProdGPUPfS_S_ii'...
GPGPU-Sim PTX: Finding postdominators for '_Z13scalarProdGPUPfS_S_ii'...
GPGPU-Sim PTX: Finding immediate postdominators for '_Z13scalarProdGPUPfS_S_ii'...
GPGPU-Sim PTX: pre-decoding instructions for '_Z13scalarProdGPUPfS_S_ii'...
GPGPU-Sim PTX: reconvergence points for _Z13scalarProdGPUPfS_S_ii...
GPGPU-Sim PTX:  1 (potential) branch divergence @  PC=0x020 (_1.ptx:70) @%p1 bra $Lt_0_6146;
GPGPU-Sim PTX:    immediate post dominator      @  PC=0x308 (_1.ptx:187) exit;
GPGPU-Sim PTX:  2 (potential) branch divergence @  PC=0x068 (_1.ptx:81) @!%p2 bra $Lt_0_6914;
GPGPU-Sim PTX:    immediate post dominator      @  PC=0x1d8 (_1.ptx:137) mov.s32 %r25, 512;
GPGPU-Sim PTX:  3 (potential) branch divergence @  PC=0x0e0 (_1.ptx:99) @%p4 bra $Lt_0_12290;
GPGPU-Sim PTX:    immediate post dominator      @  PC=0x1b0 (_1.ptx:131) st.shared.f32 [%rd6+0], %f1;
GPGPU-Sim PTX:  4 (potential) branch divergence @  PC=0x198 (_1.ptx:125) @%p5 bra $Lt_0_8194;
GPGPU-Sim PTX:    immediate post dominator      @  PC=0x1a0 (_1.ptx:126) bra.uni $Lt_0_7682;
GPGPU-Sim PTX:  5 (potential) branch divergence @  PC=0x1a0 (_1.ptx:126) bra.uni $Lt_0_7682;
GPGPU-Sim PTX:    immediate post dominator      @  PC=0x1b0 (_1.ptx:131) st.shared.f32 [%rd6+0], %f1;
GPGPU-Sim PTX:  6 (potential) branch divergence @  PC=0x1d0 (_1.ptx:135) @%p6 bra $Lt_0_7426;
GPGPU-Sim PTX:    immediate post dominator      @  PC=0x1d8 (_1.ptx:137) mov.s32 %r25, 512;
GPGPU-Sim PTX:  7 (potential) branch divergence @  PC=0x1f0 (_1.ptx:143) @%p7 bra $Lt_0_9730;
GPGPU-Sim PTX:    immediate post dominator      @  PC=0x298 (_1.ptx:169) shr.s32 %r25, %r25, 1;
GPGPU-Sim PTX:  8 (potential) branch divergence @  PC=0x290 (_1.ptx:166) @%p8 bra $Lt_0_10242;
GPGPU-Sim PTX:    immediate post dominator      @  PC=0x298 (_1.ptx:169) shr.s32 %r25, %r25, 1;
GPGPU-Sim PTX:  9 (potential) branch divergence @  PC=0x2b0 (_1.ptx:172) @%p9 bra $Lt_0_9474;
GPGPU-Sim PTX:    immediate post dominator      @  PC=0x2b8 (_1.ptx:173) @!%p3 bra $Lt_0_11010;
GPGPU-Sim PTX: 10 (potential) branch divergence @  PC=0x2b8 (_1.ptx:173) @!%p3 bra $Lt_0_11010;
GPGPU-Sim PTX:    immediate post dominator      @  PC=0x2f0 (_1.ptx:182) add.u32 %r2, %r2, %r8;
GPGPU-Sim PTX: 11 (potential) branch divergence @  PC=0x300 (_1.ptx:184) @%p10 bra $Lt_0_6658;
GPGPU-Sim PTX:    immediate post dominator      @  PC=0x308 (_1.ptx:187) exit;
GPGPU-Sim PTX: ... end of reconvergence points for _Z13scalarProdGPUPfS_S_ii
GPGPU-Sim PTX: ... done pre-decoding instructions for '_Z13scalarProdGPUPfS_S_ii'.
GPGPU-Sim PTX: finished parsing EMBEDDED .ptx file _1.ptx
Adding _cuobjdump_1.ptx with cubin handle 1
GPGPU-Sim PTX: extracting embedded .ptx to temporary file "_ptx_aZj325"
Running: cat _ptx_aZj325 | sed 's/.version 1.5/.version 1.4/' | sed 's/, texmode_independent//' | sed 's/\(\.extern \.const\[1\] .b8 \w\+\)\[\]/\1\[1\]/' | sed 's/const\[.\]/const\[0\]/g' > _ptx2_xGs19C
GPGPU-Sim PTX: generating ptxinfo using "$CUDA_INSTALL_PATH/bin/ptxas --gpu-name=sm_20 -v _ptx2_xGs19C --output-file  /dev/null 2> _ptx_aZj325info"
GPGPU-Sim PTX: Kernel '_Z13scalarProdGPUPfS_S_ii' : regs=18, lmem=0, smem=4096, cmem=68
GPGPU-Sim PTX: removing ptxinfo using "rm -f _ptx_aZj325 _ptx2_xGs19C _ptx_aZj325info"
GPGPU-Sim PTX: loading globals with explicit initializers... 
GPGPU-Sim PTX: finished loading globals (0 bytes total).
GPGPU-Sim PTX: loading constants with explicit initializers...  done.
Initializing data...
...allocating CPU memory.
...allocating GPU memory.
...generating input data in CPU mem.
...copying input data to GPU mem.
Data init done.
Executing GPU kernel...
GPGPU-Sim: synchronize waiting for inactive GPU simulation
GPGPU-Sim API: Stream Manager State
GPGPU-Sim: detected inactive GPU simulation thread

GPGPU-Sim PTX: cudaLaunch for 0x0x404ea1 (mode=performance simulation) on stream 0
GPGPU-Sim PTX: pushing kernel '_Z13scalarProdGPUPfS_S_ii' to stream 0, gridDim= (128,1,1) blockDim = (256,1,1) 
kernel '_Z13scalarProdGPUPfS_S_ii' transfer to GPU hardware scheduler
GPGPU-Sim uArch: Shader 1 bind to kernel 1 '_Z13scalarProdGPUPfS_S_ii'
GPGPU-Sim uArch: CTA/core = 6, limited by: threads regs
GPGPU-Sim uArch: core:  1, cta: 0 initialized @(1,0)
GPGPU-Sim uArch: Shader 2 bind to kernel 1 '_Z13scalarProdGPUPfS_S_ii'
GPGPU-Sim uArch: core:  2, cta: 0 initialized @(1,0)
GPGPU-Sim uArch: Shader 3 bind to kernel 1 '_Z13scalarProdGPUPfS_S_ii'
GPGPU-Sim uArch: core:  3, cta: 0 initialized @(1,0)
GPGPU-Sim uArch: Shader 4 bind to kernel 1 '_Z13scalarProdGPUPfS_S_ii'
GPGPU-Sim uArch: core:  4, cta: 0 initialized @(1,0)
GPGPU-Sim uArch: Shader 5 bind to kernel 1 '_Z13scalarProdGPUPfS_S_ii'
GPGPU-Sim uArch: core:  5, cta: 0 initialized @(1,0)
GPGPU-Sim uArch: Shader 6 bind to kernel 1 '_Z13scalarProdGPUPfS_S_ii'
GPGPU-Sim uArch: core:  6, cta: 0 initialized @(1,0)
GPGPU-Sim uArch: Shader 7 bind to kernel 1 '_Z13scalarProdGPUPfS_S_ii'
GPGPU-Sim uArch: core:  7, cta: 0 initialized @(1,0)
GPGPU-Sim uArch: Shader 8 bind to kernel 1 '_Z13scalarProdGPUPfS_S_ii'
GPGPU-Sim uArch: core:  8, cta: 0 initialized @(1,0)
GPGPU-Sim uArch: Shader 9 bind to kernel 1 '_Z13scalarProdGPUPfS_S_ii'
GPGPU-Sim uArch: core:  9, cta: 0 initialized @(1,0)
GPGPU-Sim uArch: Shader 10 bind to kernel 1 '_Z13scalarProdGPUPfS_S_ii'
GPGPU-Sim uArch: core: 10, cta: 0 initialized @(1,0)
GPGPU-Sim uArch: Shader 11 bind to kernel 1 '_Z13scalarProdGPUPfS_S_ii'
GPGPU-Sim uArch: core: 11, cta: 0 initialized @(1,0)
GPGPU-Sim uArch: Shader 12 bind to kernel 1 '_Z13scalarProdGPUPfS_S_ii'
GPGPU-Sim uArch: core: 12, cta: 0 initialized @(1,0)
GPGPU-Sim uArch: Shader 13 bind to kernel 1 '_Z13scalarProdGPUPfS_S_ii'
GPGPU-Sim uArch: core: 13, cta: 0 initialized @(1,0)
GPGPU-Sim uArch: Shader 14 bind to kernel 1 '_Z13scalarProdGPUPfS_S_ii'
GPGPU-Sim uArch: core: 14, cta: 0 initialized @(1,0)
GPGPU-Sim uArch: Shader 0 bind to kernel 1 '_Z13scalarProdGPUPfS_S_ii'
GPGPU-Sim uArch: core:  0, cta: 0 initialized @(1,0)
GPGPU-Sim uArch: core:  1, cta: 1 initialized @(2,0)
GPGPU-Sim uArch: core:  2, cta: 1 initialized @(2,0)
GPGPU-Sim uArch: core:  3, cta: 1 initialized @(2,0)
GPGPU-Sim uArch: core:  4, cta: 1 initialized @(2,0)
GPGPU-Sim uArch: core:  5, cta: 1 initialized @(2,0)
GPGPU-Sim uArch: core:  6, cta: 1 initialized @(2,0)
GPGPU-Sim uArch: core:  7, cta: 1 initialized @(2,0)
GPGPU-Sim uArch: core:  8, cta: 1 initialized @(2,0)
GPGPU-Sim uArch: core:  9, cta: 1 initialized @(2,0)
GPGPU-Sim uArch: core: 10, cta: 1 initialized @(2,0)
GPGPU-Sim uArch: core: 11, cta: 1 initialized @(2,0)
GPGPU-Sim uArch: core: 12, cta: 1 initialized @(2,0)
GPGPU-Sim uArch: core: 13, cta: 1 initialized @(2,0)
GPGPU-Sim uArch: core: 14, cta: 1 initialized @(2,0)
GPGPU-Sim uArch: core:  0, cta: 1 initialized @(2,0)
GPGPU-Sim uArch: core:  1, cta: 2 initialized @(3,0)
GPGPU-Sim uArch: core:  2, cta: 2 initialized @(3,0)
GPGPU-Sim uArch: core:  3, cta: 2 initialized @(3,0)
GPGPU-Sim uArch: core:  4, cta: 2 initialized @(3,0)
GPGPU-Sim uArch: core:  5, cta: 2 initialized @(3,0)
GPGPU-Sim uArch: core:  6, cta: 2 initialized @(3,0)
GPGPU-Sim uArch: core:  7, cta: 2 initialized @(3,0)
GPGPU-Sim uArch: core:  8, cta: 2 initialized @(3,0)
GPGPU-Sim uArch: core:  9, cta: 2 initialized @(3,0)
GPGPU-Sim uArch: core: 10, cta: 2 initialized @(3,0)
GPGPU-Sim uArch: core: 11, cta: 2 initialized @(3,0)
GPGPU-Sim uArch: core: 12, cta: 2 initialized @(3,0)
GPGPU-Sim uArch: core: 13, cta: 2 initialized @(3,0)
GPGPU-Sim uArch: core: 14, cta: 2 initialized @(3,0)
GPGPU-Sim uArch: core:  0, cta: 2 initialized @(3,0)
GPGPU-Sim uArch: core:  1, cta: 3 initialized @(4,0)
GPGPU-Sim uArch: core:  2, cta: 3 initialized @(4,0)
GPGPU-Sim uArch: core:  3, cta: 3 initialized @(4,0)
GPGPU-Sim uArch: core:  4, cta: 3 initialized @(4,0)
GPGPU-Sim uArch: core:  5, cta: 3 initialized @(4,0)
GPGPU-Sim uArch: core:  6, cta: 3 initialized @(4,0)
GPGPU-Sim uArch: core:  7, cta: 3 initialized @(4,0)
GPGPU-Sim uArch: core:  8, cta: 3 initialized @(4,0)
GPGPU-Sim uArch: core:  9, cta: 3 initialized @(4,0)
GPGPU-Sim uArch: core: 10, cta: 3 initialized @(4,0)
GPGPU-Sim uArch: core: 11, cta: 3 initialized @(4,0)
GPGPU-Sim uArch: core: 12, cta: 3 initialized @(4,0)
GPGPU-Sim uArch: core: 13, cta: 3 initialized @(4,0)
GPGPU-Sim uArch: core: 14, cta: 3 initialized @(4,0)
GPGPU-Sim uArch: core:  0, cta: 3 initialized @(4,0)
GPGPU-Sim uArch: core:  1, cta: 4 initialized @(5,0)
GPGPU-Sim uArch: core:  2, cta: 4 initialized @(5,0)
GPGPU-Sim uArch: core:  3, cta: 4 initialized @(5,0)
GPGPU-Sim uArch: core:  4, cta: 4 initialized @(5,0)
GPGPU-Sim uArch: core:  5, cta: 4 initialized @(5,0)
GPGPU-Sim uArch: core:  6, cta: 4 initialized @(5,0)
GPGPU-Sim uArch: core:  7, cta: 4 initialized @(5,0)
GPGPU-Sim uArch: core:  8, cta: 4 initialized @(5,0)
GPGPU-Sim uArch: core:  9, cta: 4 initialized @(5,0)
GPGPU-Sim uArch: core: 10, cta: 4 initialized @(5,0)
GPGPU-Sim uArch: core: 11, cta: 4 initialized @(5,0)
GPGPU-Sim uArch: core: 12, cta: 4 initialized @(5,0)
GPGPU-Sim uArch: core: 13, cta: 4 initialized @(5,0)
GPGPU-Sim uArch: core: 14, cta: 4 initialized @(5,0)
GPGPU-Sim uArch: core:  0, cta: 4 initialized @(5,0)
GPGPU-Sim uArch: core:  1, cta: 5 initialized @(6,0)
GPGPU-Sim uArch: core:  2, cta: 5 initialized @(6,0)
GPGPU-Sim uArch: core:  3, cta: 5 initialized @(6,0)
GPGPU-Sim uArch: core:  4, cta: 5 initialized @(6,0)
GPGPU-Sim uArch: core:  5, cta: 5 initialized @(6,0)
GPGPU-Sim uArch: core:  6, cta: 5 initialized @(6,0)
GPGPU-Sim uArch: core:  7, cta: 5 initialized @(6,0)
GPGPU-Sim uArch: core:  8, cta: 5 initialized @(6,0)
GPGPU-Sim uArch: core:  9, cta: 5 initialized @(6,0)
GPGPU-Sim uArch: core: 10, cta: 5 initialized @(6,0)
GPGPU-Sim uArch: core: 11, cta: 5 initialized @(6,0)
GPGPU-Sim uArch: core: 12, cta: 5 initialized @(6,0)
GPGPU-Sim uArch: core: 13, cta: 5 initialized @(6,0)
GPGPU-Sim uArch: core: 14, cta: 5 initialized @(6,0)
GPGPU-Sim uArch: core:  0, cta: 5 initialized @(6,0)
GPGPU-Sim uArch: cycles simulated: 500  inst.: 46080 (ipc=92.2) sim_rate=23040 (inst/sec) elapsed = 0:0:00:02 / Mon Feb 29 20:26:26 2016
GPGPU-Sim PTX: 100000 instructions simulated : ctaid=(83,0,0) tid=(63,0,0)
GPGPU-Sim PTX: 200000 instructions simulated : ctaid=(41,0,0) tid=(95,0,0)
GPGPU-Sim PTX: 300000 instructions simulated : ctaid=(86,0,0) tid=(95,0,0)
GPGPU-Sim PTX: 400000 instructions simulated : ctaid=(80,0,0) tid=(191,0,0)
GPGPU-Sim PTX: 500000 instructions simulated : ctaid=(69,0,0) tid=(95,0,0)
GPGPU-Sim PTX: 600000 instructions simulated : ctaid=(35,0,0) tid=(31,0,0)
GPGPU-Sim PTX: 700000 instructions simulated : ctaid=(68,0,0) tid=(223,0,0)
GPGPU-Sim uArch: cycles simulated: 1500  inst.: 669760 (ipc=446.5) sim_rate=223253 (inst/sec) elapsed = 0:0:00:03 / Mon Feb 29 20:26:27 2016
GPGPU-Sim PTX: 800000 instructions simulated : ctaid=(12,0,0) tid=(223,0,0)
GPGPU-Sim PTX: 900000 instructions simulated : ctaid=(12,0,0) tid=(31,0,0)
GPGPU-Sim PTX: 1000000 instructions simulated : ctaid=(83,0,0) tid=(255,0,0)
GPGPU-Sim uArch: cycles simulated: 2500  inst.: 970144 (ipc=388.1) sim_rate=242536 (inst/sec) elapsed = 0:0:00:04 / Mon Feb 29 20:26:28 2016
GPGPU-Sim PTX: 1100000 instructions simulated : ctaid=(49,0,0) tid=(95,0,0)
GPGPU-Sim PTX: 1200000 instructions simulated : ctaid=(40,0,0) tid=(223,0,0)
GPGPU-Sim uArch: cycles simulated: 4000  inst.: 1204800 (ipc=301.2) sim_rate=240960 (inst/sec) elapsed = 0:0:00:05 / Mon Feb 29 20:26:29 2016
GPGPU-Sim PTX: 1300000 instructions simulated : ctaid=(56,0,0) tid=(31,0,0)
GPGPU-Sim PTX: 1400000 instructions simulated : ctaid=(12,0,0) tid=(223,0,0)
GPGPU-Sim PTX: 1500000 instructions simulated : ctaid=(35,0,0) tid=(95,0,0)
GPGPU-Sim PTX: 1600000 instructions simulated : ctaid=(54,0,0) tid=(223,0,0)
GPGPU-Sim uArch: cycles simulated: 5500  inst.: 1561600 (ipc=283.9) sim_rate=260266 (inst/sec) elapsed = 0:0:00:06 / Mon Feb 29 20:26:30 2016
GPGPU-Sim PTX: 1700000 instructions simulated : ctaid=(21,0,0) tid=(191,0,0)
GPGPU-Sim PTX: 1800000 instructions simulated : ctaid=(57,0,0) tid=(63,0,0)
GPGPU-Sim PTX: 1900000 instructions simulated : ctaid=(13,0,0) tid=(95,0,0)
GPGPU-Sim PTX: 2000000 instructions simulated : ctaid=(41,0,0) tid=(63,0,0)
GPGPU-Sim uArch: cycles simulated: 7000  inst.: 1914752 (ipc=273.5) sim_rate=273536 (inst/sec) elapsed = 0:0:00:07 / Mon Feb 29 20:26:31 2016
GPGPU-Sim PTX: 2100000 instructions simulated : ctaid=(12,0,0) tid=(223,0,0)
GPGPU-Sim PTX: 2200000 instructions simulated : ctaid=(57,0,0) tid=(223,0,0)
GPGPU-Sim PTX: 2300000 instructions simulated : ctaid=(69,0,0) tid=(31,0,0)
GPGPU-Sim PTX: 2400000 instructions simulated : ctaid=(43,0,0) tid=(95,0,0)
GPGPU-Sim uArch: cycles simulated: 8500  inst.: 2296544 (ipc=270.2) sim_rate=287068 (inst/sec) elapsed = 0:0:00:08 / Mon Feb 29 20:26:32 2016
GPGPU-Sim PTX: 2500000 instructions simulated : ctaid=(58,0,0) tid=(31,0,0)
GPGPU-Sim PTX: 2600000 instructions simulated : ctaid=(9,0,0) tid=(223,0,0)
GPGPU-Sim uArch: cycles simulated: 9500  inst.: 2520576 (ipc=265.3) sim_rate=280064 (inst/sec) elapsed = 0:0:00:09 / Mon Feb 29 20:26:33 2016
GPGPU-Sim PTX: 2700000 instructions simulated : ctaid=(23,0,0) tid=(223,0,0)
GPGPU-Sim PTX: 2800000 instructions simulated : ctaid=(46,0,0) tid=(31,0,0)
GPGPU-Sim PTX: 2900000 instructions simulated : ctaid=(29,0,0) tid=(63,0,0)
GPGPU-Sim PTX: 3000000 instructions simulated : ctaid=(56,0,0) tid=(191,0,0)
GPGPU-Sim uArch: cycles simulated: 11000  inst.: 2905984 (ipc=264.2) sim_rate=290598 (inst/sec) elapsed = 0:0:00:10 / Mon Feb 29 20:26:34 2016
GPGPU-Sim PTX: 3100000 instructions simulated : ctaid=(7,0,0) tid=(223,0,0)
GPGPU-Sim PTX: 3200000 instructions simulated : ctaid=(28,0,0) tid=(223,0,0)
GPGPU-Sim uArch: cycles simulated: 12000  inst.: 3129888 (ipc=260.8) sim_rate=284535 (inst/sec) elapsed = 0:0:00:11 / Mon Feb 29 20:26:35 2016
GPGPU-Sim PTX: 3300000 instructions simulated : ctaid=(7,0,0) tid=(31,0,0)
GPGPU-Sim PTX: 3400000 instructions simulated : ctaid=(17,0,0) tid=(63,0,0)
GPGPU-Sim PTX: 3500000 instructions simulated : ctaid=(85,0,0) tid=(95,0,0)
GPGPU-Sim PTX: 3600000 instructions simulated : ctaid=(44,0,0) tid=(255,0,0)
GPGPU-Sim uArch: cycles simulated: 13500  inst.: 3478880 (ipc=257.7) sim_rate=289906 (inst/sec) elapsed = 0:0:00:12 / Mon Feb 29 20:26:36 2016
GPGPU-Sim PTX: 3700000 instructions simulated : ctaid=(3,0,0) tid=(63,0,0)
GPGPU-Sim PTX: 3800000 instructions simulated : ctaid=(41,0,0) tid=(191,0,0)
GPGPU-Sim PTX: 3900000 instructions simulated : ctaid=(46,0,0) tid=(95,0,0)
GPGPU-Sim uArch: cycles simulated: 14500  inst.: 3768064 (ipc=259.9) sim_rate=289851 (inst/sec) elapsed = 0:0:00:13 / Mon Feb 29 20:26:37 2016
GPGPU-Sim PTX: 4000000 instructions simulated : ctaid=(50,0,0) tid=(63,0,0)
GPGPU-Sim PTX: 4100000 instructions simulated : ctaid=(68,0,0) tid=(223,0,0)
GPGPU-Sim PTX: 4200000 instructions simulated : ctaid=(39,0,0) tid=(127,0,0)
GPGPU-Sim PTX: 4300000 instructions simulated : ctaid=(65,0,0) tid=(95,0,0)
GPGPU-Sim uArch: cycles simulated: 15500  inst.: 4162048 (ipc=268.5) sim_rate=297289 (inst/sec) elapsed = 0:0:00:14 / Mon Feb 29 20:26:38 2016
GPGPU-Sim PTX: 4400000 instructions simulated : ctaid=(83,0,0) tid=(95,0,0)
GPGPU-Sim PTX: 4500000 instructions simulated : ctaid=(20,0,0) tid=(255,0,0)
GPGPU-Sim PTX: 4600000 instructions simulated : ctaid=(2,0,0) tid=(79,0,0)
GPGPU-Sim PTX: 4700000 instructions simulated : ctaid=(12,0,0) tid=(175,0,0)
GPGPU-Sim PTX: 4800000 instructions simulated : ctaid=(12,0,0) tid=(5,0,0)
GPGPU-Sim uArch: cycles simulated: 16500  inst.: 4625102 (ipc=280.3) sim_rate=308340 (inst/sec) elapsed = 0:0:00:15 / Mon Feb 29 20:26:39 2016
GPGPU-Sim PTX: 4900000 instructions simulated : ctaid=(82,0,0) tid=(41,0,0)
GPGPU-Sim PTX: 5000000 instructions simulated : ctaid=(15,0,0) tid=(47,0,0)
GPGPU-Sim PTX: 5100000 instructions simulated : ctaid=(45,0,0) tid=(224,0,0)
GPGPU-Sim PTX: 5200000 instructions simulated : ctaid=(54,0,0) tid=(121,0,0)
GPGPU-Sim PTX: 5300000 instructions simulated : ctaid=(21,0,0) tid=(48,0,0)
GPGPU-Sim PTX: 5400000 instructions simulated : ctaid=(36,0,0) tid=(116,0,0)
GPGPU-Sim uArch: cycles simulated: 17500  inst.: 5225613 (ipc=298.6) sim_rate=326600 (inst/sec) elapsed = 0:0:00:16 / Mon Feb 29 20:26:40 2016
GPGPU-Sim PTX: 5500000 instructions simulated : ctaid=(83,0,0) tid=(142,0,0)
GPGPU-Sim PTX: 5600000 instructions simulated : ctaid=(19,0,0) tid=(9,0,0)
GPGPU-Sim PTX: 5700000 instructions simulated : ctaid=(85,0,0) tid=(81,0,0)
GPGPU-Sim uArch: cycles simulated: 18000  inst.: 5520411 (ipc=306.7) sim_rate=324730 (inst/sec) elapsed = 0:0:00:17 / Mon Feb 29 20:26:41 2016
GPGPU-Sim PTX: 5800000 instructions simulated : ctaid=(56,0,0) tid=(58,0,0)
GPGPU-Sim PTX: 5900000 instructions simulated : ctaid=(64,0,0) tid=(197,0,0)
GPGPU-Sim PTX: 6000000 instructions simulated : ctaid=(15,0,0) tid=(175,0,0)
GPGPU-Sim PTX: 6100000 instructions simulated : ctaid=(56,0,0) tid=(51,0,0)
GPGPU-Sim PTX: 6200000 instructions simulated : ctaid=(11,0,0) tid=(16,0,0)
GPGPU-Sim PTX: 6300000 instructions simulated : ctaid=(20,0,0) tid=(122,0,0)
GPGPU-Sim PTX: 6400000 instructions simulated : ctaid=(51,0,0) tid=(161,0,0)
GPGPU-Sim uArch: cycles simulated: 19500  inst.: 6150479 (ipc=315.4) sim_rate=341693 (inst/sec) elapsed = 0:0:00:18 / Mon Feb 29 20:26:42 2016
GPGPU-Sim PTX: 6500000 instructions simulated : ctaid=(30,0,0) tid=(193,0,0)
GPGPU-Sim PTX: 6600000 instructions simulated : ctaid=(89,0,0) tid=(198,0,0)
GPGPU-Sim PTX: 6700000 instructions simulated : ctaid=(27,0,0) tid=(238,0,0)
GPGPU-Sim PTX: 6800000 instructions simulated : ctaid=(51,0,0) tid=(238,0,0)
GPGPU-Sim uArch: cycles simulated: 20500  inst.: 6507339 (ipc=317.4) sim_rate=342491 (inst/sec) elapsed = 0:0:00:19 / Mon Feb 29 20:26:43 2016
GPGPU-Sim PTX: 6900000 instructions simulated : ctaid=(52,0,0) tid=(189,0,0)
GPGPU-Sim PTX: 7000000 instructions simulated : ctaid=(22,0,0) tid=(193,0,0)
GPGPU-Sim PTX: 7100000 instructions simulated : ctaid=(10,0,0) tid=(108,0,0)
GPGPU-Sim uArch: cycles simulated: 21500  inst.: 6846881 (ipc=318.5) sim_rate=342344 (inst/sec) elapsed = 0:0:00:20 / Mon Feb 29 20:26:44 2016
GPGPU-Sim PTX: 7200000 instructions simulated : ctaid=(73,0,0) tid=(99,0,0)
GPGPU-Sim PTX: 7300000 instructions simulated : ctaid=(26,0,0) tid=(113,0,0)
GPGPU-Sim PTX: 7400000 instructions simulated : ctaid=(30,0,0) tid=(60,0,0)
GPGPU-Sim PTX: 7500000 instructions simulated : ctaid=(36,0,0) tid=(135,0,0)
GPGPU-Sim PTX: 7600000 instructions simulated : ctaid=(35,0,0) tid=(255,0,0)
GPGPU-Sim uArch: cycles simulated: 22500  inst.: 7265472 (ipc=322.9) sim_rate=345974 (inst/sec) elapsed = 0:0:00:21 / Mon Feb 29 20:26:45 2016
GPGPU-Sim PTX: 7700000 instructions simulated : ctaid=(12,0,0) tid=(255,0,0)
GPGPU-Sim PTX: 7800000 instructions simulated : ctaid=(29,0,0) tid=(193,0,0)
GPGPU-Sim PTX: 7900000 instructions simulated : ctaid=(28,0,0) tid=(215,0,0)
GPGPU-Sim uArch: cycles simulated: 23500  inst.: 7630135 (ipc=324.7) sim_rate=346824 (inst/sec) elapsed = 0:0:00:22 / Mon Feb 29 20:26:46 2016
GPGPU-Sim PTX: 8000000 instructions simulated : ctaid=(44,0,0) tid=(100,0,0)
GPGPU-Sim PTX: 8100000 instructions simulated : ctaid=(33,0,0) tid=(181,0,0)
GPGPU-Sim PTX: 8200000 instructions simulated : ctaid=(9,0,0) tid=(224,0,0)
GPGPU-Sim PTX: 8300000 instructions simulated : ctaid=(75,0,0) tid=(226,0,0)
GPGPU-Sim PTX: 8400000 instructions simulated : ctaid=(72,0,0) tid=(162,0,0)
GPGPU-Sim PTX: 8500000 instructions simulated : ctaid=(31,0,0) tid=(206,0,0)
GPGPU-Sim PTX: 8600000 instructions simulated : ctaid=(13,0,0) tid=(207,0,0)
GPGPU-Sim uArch: cycles simulated: 25000  inst.: 8231496 (ipc=329.3) sim_rate=357891 (inst/sec) elapsed = 0:0:00:23 / Mon Feb 29 20:26:47 2016
GPGPU-Sim PTX: 8700000 instructions simulated : ctaid=(35,0,0) tid=(35,0,0)
GPGPU-Sim PTX: 8800000 instructions simulated : ctaid=(20,0,0) tid=(94,0,0)
GPGPU-Sim uArch: cycles simulated: 26000  inst.: 8487785 (ipc=326.5) sim_rate=353657 (inst/sec) elapsed = 0:0:00:24 / Mon Feb 29 20:26:48 2016
GPGPU-Sim PTX: 8900000 instructions simulated : ctaid=(35,0,0) tid=(137,0,0)
GPGPU-Sim PTX: 9000000 instructions simulated : ctaid=(27,0,0) tid=(210,0,0)
GPGPU-Sim PTX: 9100000 instructions simulated : ctaid=(29,0,0) tid=(15,0,0)
GPGPU-Sim PTX: 9200000 instructions simulated : ctaid=(33,0,0) tid=(132,0,0)
GPGPU-Sim uArch: cycles simulated: 27000  inst.: 8820682 (ipc=326.7) sim_rate=352827 (inst/sec) elapsed = 0:0:00:25 / Mon Feb 29 20:26:49 2016
GPGPU-Sim PTX: 9300000 instructions simulated : ctaid=(49,0,0) tid=(163,0,0)
GPGPU-Sim PTX: 9400000 instructions simulated : ctaid=(42,0,0) tid=(67,0,0)
GPGPU-Sim PTX: 9500000 instructions simulated : ctaid=(13,0,0) tid=(179,0,0)
GPGPU-Sim PTX: 9600000 instructions simulated : ctaid=(12,0,0) tid=(243,0,0)
GPGPU-Sim PTX: 9700000 instructions simulated : ctaid=(3,0,0) tid=(223,0,0)
GPGPU-Sim uArch: cycles simulated: 28000  inst.: 9336578 (ipc=333.4) sim_rate=359099 (inst/sec) elapsed = 0:0:00:26 / Mon Feb 29 20:26:50 2016
GPGPU-Sim PTX: 9800000 instructions simulated : ctaid=(3,0,0) tid=(227,0,0)
GPGPU-Sim PTX: 9900000 instructions simulated : ctaid=(24,0,0) tid=(223,0,0)
GPGPU-Sim PTX: 10000000 instructions simulated : ctaid=(26,0,0) tid=(232,0,0)
GPGPU-Sim PTX: 10100000 instructions simulated : ctaid=(0,0,0) tid=(35,0,0)
GPGPU-Sim PTX: 10200000 instructions simulated : ctaid=(14,0,0) tid=(135,0,0)
GPGPU-Sim PTX: 10300000 instructions simulated : ctaid=(52,0,0) tid=(25,0,0)
GPGPU-Sim uArch: cycles simulated: 29000  inst.: 9843492 (ipc=339.4) sim_rate=364573 (inst/sec) elapsed = 0:0:00:27 / Mon Feb 29 20:26:51 2016
GPGPU-Sim PTX: 10400000 instructions simulated : ctaid=(16,0,0) tid=(157,0,0)
GPGPU-Sim uArch: Shader 8 finished CTA #0 (29260,0), 5 CTAs running
GPGPU-Sim uArch: core:  8, cta: 0 initialized @(29261,0)
GPGPU-Sim PTX: 10500000 instructions simulated : ctaid=(44,0,0) tid=(244,0,0)
GPGPU-Sim uArch: Shader 7 finished CTA #0 (29397,0), 5 CTAs running
GPGPU-Sim uArch: core:  7, cta: 0 initialized @(29398,0)
GPGPU-Sim PTX: 10600000 instructions simulated : ctaid=(0,0,0) tid=(112,0,0)
GPGPU-Sim PTX: 10700000 instructions simulated : ctaid=(91,0,0) tid=(123,0,0)
GPGPU-Sim uArch: Shader 12 finished CTA #0 (29731,0), 5 CTAs running
GPGPU-Sim uArch: core: 12, cta: 0 initialized @(29732,0)
GPGPU-Sim uArch: Shader 9 finished CTA #0 (29772,0), 5 CTAs running
GPGPU-Sim uArch: core:  9, cta: 0 initialized @(29773,0)
GPGPU-Sim uArch: Shader 1 finished CTA #0 (29784,0), 5 CTAs running
GPGPU-Sim uArch: core:  1, cta: 0 initialized @(29785,0)
GPGPU-Sim PTX: 10800000 instructions simulated : ctaid=(42,0,0) tid=(163,0,0)
GPGPU-Sim PTX: 10900000 instructions simulated : ctaid=(45,0,0) tid=(168,0,0)
GPGPU-Sim uArch: Shader 5 finished CTA #0 (29996,0), 5 CTAs running
GPGPU-Sim uArch: core:  5, cta: 0 initialized @(29997,0)
GPGPU-Sim uArch: cycles simulated: 30000  inst.: 10437032 (ipc=347.9) sim_rate=372751 (inst/sec) elapsed = 0:0:00:28 / Mon Feb 29 20:26:52 2016
GPGPU-Sim PTX: 11000000 instructions simulated : ctaid=(24,0,0) tid=(48,0,0)
GPGPU-Sim uArch: Shader 14 finished CTA #0 (30109,0), 5 CTAs running
GPGPU-Sim uArch: core: 14, cta: 0 initialized @(30110,0)
GPGPU-Sim uArch: Shader 3 finished CTA #0 (30200,0), 5 CTAs running
GPGPU-Sim uArch: core:  3, cta: 0 initialized @(30201,0)
GPGPU-Sim PTX: 11100000 instructions simulated : ctaid=(3,0,0) tid=(168,0,0)
GPGPU-Sim uArch: Shader 10 finished CTA #0 (30289,0), 5 CTAs running
GPGPU-Sim uArch: core: 10, cta: 0 initialized @(30290,0)
GPGPU-Sim uArch: Shader 2 finished CTA #0 (30346,0), 5 CTAs running
GPGPU-Sim uArch: core:  2, cta: 0 initialized @(30347,0)
GPGPU-Sim PTX: 11200000 instructions simulated : ctaid=(53,0,0) tid=(9,0,0)
GPGPU-Sim uArch: cycles simulated: 30500  inst.: 10754715 (ipc=352.6) sim_rate=370852 (inst/sec) elapsed = 0:0:00:29 / Mon Feb 29 20:26:53 2016
GPGPU-Sim uArch: Shader 13 finished CTA #0 (30506,0), 5 CTAs running
GPGPU-Sim uArch: core: 13, cta: 0 initialized @(30507,0)
GPGPU-Sim PTX: 11300000 instructions simulated : ctaid=(24,0,0) tid=(92,0,0)
GPGPU-Sim PTX: 11400000 instructions simulated : ctaid=(96,0,0) tid=(240,0,0)
GPGPU-Sim uArch: Shader 0 finished CTA #0 (30784,0), 5 CTAs running
GPGPU-Sim uArch: core:  0, cta: 0 initialized @(30785,0)
GPGPU-Sim PTX: 11500000 instructions simulated : ctaid=(28,0,0) tid=(124,0,0)
GPGPU-Sim uArch: Shader 4 finished CTA #0 (30872,0), 5 CTAs running
GPGPU-Sim uArch: core:  4, cta: 0 initialized @(30873,0)
GPGPU-Sim uArch: Shader 6 finished CTA #0 (30873,0), 5 CTAs running
GPGPU-Sim uArch: core:  6, cta: 0 initialized @(30874,0)
GPGPU-Sim uArch: Shader 9 finished CTA #1 (30945,0), 5 CTAs running
GPGPU-Sim uArch: core:  9, cta: 1 initialized @(30946,0)
GPGPU-Sim PTX: 11600000 instructions simulated : ctaid=(29,0,0) tid=(158,0,0)
GPGPU-Sim uArch: Shader 8 finished CTA #1 (31100,0), 5 CTAs running
GPGPU-Sim uArch: core:  8, cta: 1 initialized @(31101,0)
GPGPU-Sim PTX: 11700000 instructions simulated : ctaid=(40,0,0) tid=(5,0,0)
GPGPU-Sim PTX: 11800000 instructions simulated : ctaid=(34,0,0) tid=(44,0,0)
GPGPU-Sim uArch: cycles simulated: 31500  inst.: 11311467 (ipc=359.1) sim_rate=377048 (inst/sec) elapsed = 0:0:00:30 / Mon Feb 29 20:26:54 2016
GPGPU-Sim PTX: 11900000 instructions simulated : ctaid=(20,0,0) tid=(161,0,0)
GPGPU-Sim uArch: Shader 2 finished CTA #1 (31694,0), 5 CTAs running
GPGPU-Sim uArch: core:  2, cta: 1 initialized @(31695,0)
GPGPU-Sim uArch: Shader 5 finished CTA #1 (31736,0), 5 CTAs running
GPGPU-Sim uArch: core:  5, cta: 1 initialized @(31737,0)
GPGPU-Sim PTX: 12000000 instructions simulated : ctaid=(55,0,0) tid=(224,0,0)
GPGPU-Sim PTX: 12100000 instructions simulated : ctaid=(50,0,0) tid=(209,0,0)
GPGPU-Sim uArch: Shader 11 finished CTA #0 (32002,0), 5 CTAs running
GPGPU-Sim uArch: core: 11, cta: 0 initialized @(32003,0)
GPGPU-Sim uArch: Shader 12 finished CTA #1 (32057,0), 5 CTAs running
GPGPU-Sim uArch: core: 12, cta: 1 initialized @(32058,0)
GPGPU-Sim uArch: Shader 3 finished CTA #1 (32078,0), 5 CTAs running
GPGPU-Sim uArch: core:  3, cta: 1 initialized @(32079,0)
GPGPU-Sim PTX: 12200000 instructions simulated : ctaid=(27,0,0) tid=(235,0,0)
GPGPU-Sim uArch: Shader 7 finished CTA #1 (32318,0), 5 CTAs running
GPGPU-Sim uArch: core:  7, cta: 1 initialized @(32319,0)
GPGPU-Sim PTX: 12300000 instructions simulated : ctaid=(71,0,0) tid=(22,0,0)
GPGPU-Sim uArch: cycles simulated: 32500  inst.: 11783720 (ipc=362.6) sim_rate=380120 (inst/sec) elapsed = 0:0:00:31 / Mon Feb 29 20:26:55 2016
GPGPU-Sim PTX: 12400000 instructions simulated : ctaid=(36,0,0) tid=(122,0,0)
GPGPU-Sim uArch: Shader 4 finished CTA #1 (32683,0), 5 CTAs running
GPGPU-Sim uArch: core:  4, cta: 1 initialized @(32684,0)
GPGPU-Sim uArch: Shader 10 finished CTA #1 (32714,0), 5 CTAs running
GPGPU-Sim uArch: core: 10, cta: 1 initialized @(32715,0)
GPGPU-Sim PTX: 12500000 instructions simulated : ctaid=(58,0,0) tid=(51,0,0)
GPGPU-Sim uArch: Shader 1 finished CTA #1 (32903,0), 5 CTAs running
GPGPU-Sim uArch: core:  1, cta: 1 initialized @(32904,0)
GPGPU-Sim PTX: 12600000 instructions simulated : ctaid=(38,0,0) tid=(243,0,0)
GPGPU-Sim PTX: 12700000 instructions simulated : ctaid=(50,0,0) tid=(248,0,0)
GPGPU-Sim uArch: Shader 14 finished CTA #1 (33299,0), 5 CTAs running
GPGPU-Sim uArch: core: 14, cta: 1 initialized @(33300,0)
GPGPU-Sim PTX: 12800000 instructions simulated : ctaid=(64,0,0) tid=(81,0,0)
GPGPU-Sim uArch: Shader 0 finished CTA #1 (33414,0), 5 CTAs running
GPGPU-Sim uArch: core:  0, cta: 1 initialized @(33415,0)
GPGPU-Sim uArch: cycles simulated: 33500  inst.: 12271070 (ipc=366.3) sim_rate=383470 (inst/sec) elapsed = 0:0:00:32 / Mon Feb 29 20:26:56 2016
GPGPU-Sim PTX: 12900000 instructions simulated : ctaid=(71,0,0) tid=(219,0,0)
GPGPU-Sim PTX: 13000000 instructions simulated : ctaid=(40,0,0) tid=(167,0,0)
GPGPU-Sim uArch: cycles simulated: 34000  inst.: 12474953 (ipc=366.9) sim_rate=378028 (inst/sec) elapsed = 0:0:00:33 / Mon Feb 29 20:26:57 2016
GPGPU-Sim PTX: 13100000 instructions simulated : ctaid=(38,0,0) tid=(176,0,0)
GPGPU-Sim PTX: 13200000 instructions simulated : ctaid=(86,0,0) tid=(250,0,0)
GPGPU-Sim uArch: Shader 13 finished CTA #1 (34308,0), 5 CTAs running
GPGPU-Sim uArch: core: 13, cta: 1 initialized @(34309,0)
GPGPU-Sim uArch: Shader 6 finished CTA #1 (34332,0), 5 CTAs running
GPGPU-Sim uArch: core:  6, cta: 1 initialized @(34333,0)
GPGPU-Sim PTX: 13300000 instructions simulated : ctaid=(50,0,0) tid=(206,0,0)
GPGPU-Sim PTX: 13400000 instructions simulated : ctaid=(62,0,0) tid=(60,0,0)
GPGPU-Sim PTX: 13500000 instructions simulated : ctaid=(37,0,0) tid=(129,0,0)
GPGPU-Sim uArch: cycles simulated: 35000  inst.: 12906650 (ipc=368.8) sim_rate=379607 (inst/sec) elapsed = 0:0:00:34 / Mon Feb 29 20:26:58 2016
GPGPU-Sim uArch: Shader 11 finished CTA #1 (35111,0), 5 CTAs running
GPGPU-Sim uArch: core: 11, cta: 1 initialized @(35112,0)
GPGPU-Sim PTX: 13600000 instructions simulated : ctaid=(88,0,0) tid=(114,0,0)
GPGPU-Sim PTX: 13700000 instructions simulated : ctaid=(106,0,0) tid=(108,0,0)
GPGPU-Sim PTX: 13800000 instructions simulated : ctaid=(53,0,0) tid=(127,0,0)
GPGPU-Sim uArch: Shader 12 finished CTA #2 (35479,0), 5 CTAs running
GPGPU-Sim uArch: core: 12, cta: 2 initialized @(35480,0)
GPGPU-Sim uArch: Shader 7 finished CTA #2 (35601,0), 5 CTAs running
GPGPU-Sim uArch: core:  7, cta: 2 initialized @(35602,0)
GPGPU-Sim PTX: 13900000 instructions simulated : ctaid=(119,0,0) tid=(241,0,0)
GPGPU-Sim PTX: 14000000 instructions simulated : ctaid=(116,0,0) tid=(90,0,0)
GPGPU-Sim uArch: cycles simulated: 36000  inst.: 13432270 (ipc=373.1) sim_rate=383779 (inst/sec) elapsed = 0:0:00:35 / Mon Feb 29 20:26:59 2016
GPGPU-Sim PTX: 14100000 instructions simulated : ctaid=(44,0,0) tid=(75,0,0)
GPGPU-Sim PTX: 14200000 instructions simulated : ctaid=(71,0,0) tid=(191,0,0)
GPGPU-Sim PTX: 14300000 instructions simulated : ctaid=(30,0,0) tid=(29,0,0)
GPGPU-Sim PTX: 14400000 instructions simulated : ctaid=(100,0,0) tid=(123,0,0)
GPGPU-Sim uArch: Shader 2 finished CTA #2 (36685,0), 5 CTAs running
GPGPU-Sim uArch: core:  2, cta: 2 initialized @(36686,0)
GPGPU-Sim PTX: 14500000 instructions simulated : ctaid=(64,0,0) tid=(21,0,0)
GPGPU-Sim uArch: cycles simulated: 37000  inst.: 13900575 (ipc=375.7) sim_rate=386127 (inst/sec) elapsed = 0:0:00:36 / Mon Feb 29 20:27:00 2016
GPGPU-Sim PTX: 14600000 instructions simulated : ctaid=(101,0,0) tid=(144,0,0)
GPGPU-Sim uArch: Shader 1 finished CTA #2 (37184,0), 5 CTAs running
GPGPU-Sim uArch: core:  1, cta: 2 initialized @(37185,0)
GPGPU-Sim PTX: 14700000 instructions simulated : ctaid=(48,0,0) tid=(222,0,0)
GPGPU-Sim PTX: 14800000 instructions simulated : ctaid=(75,0,0) tid=(23,0,0)
GPGPU-Sim uArch: cycles simulated: 37500  inst.: 14142165 (ipc=377.1) sim_rate=382220 (inst/sec) elapsed = 0:0:00:37 / Mon Feb 29 20:27:01 2016
GPGPU-Sim PTX: 14900000 instructions simulated : ctaid=(34,0,0) tid=(7,0,0)
GPGPU-Sim PTX: 15000000 instructions simulated : ctaid=(81,0,0) tid=(106,0,0)
GPGPU-Sim uArch: Shader 8 finished CTA #2 (37917,0), 5 CTAs running
GPGPU-Sim uArch: core:  8, cta: 2 initialized @(37918,0)
GPGPU-Sim uArch: Shader 13 finished CTA #2 (37943,0), 5 CTAs running
GPGPU-Sim uArch: core: 13, cta: 2 initialized @(37944,0)
GPGPU-Sim uArch: Shader 10 finished CTA #2 (37947,0), 5 CTAs running
GPGPU-Sim uArch: core: 10, cta: 2 initialized @(37948,0)
GPGPU-Sim PTX: 15100000 instructions simulated : ctaid=(44,0,0) tid=(127,0,0)
GPGPU-Sim PTX: 15200000 instructions simulated : ctaid=(88,0,0) tid=(24,0,0)
GPGPU-Sim uArch: Shader 3 finished CTA #2 (38459,0), 5 CTAs running
GPGPU-Sim uArch: core:  3, cta: 2 initialized @(38460,0)
GPGPU-Sim uArch: cycles simulated: 38500  inst.: 14554045 (ipc=378.0) sim_rate=383001 (inst/sec) elapsed = 0:0:00:38 / Mon Feb 29 20:27:02 2016
GPGPU-Sim PTX: 15300000 instructions simulated : ctaid=(40,0,0) tid=(45,0,0)
GPGPU-Sim uArch: Shader 0 finished CTA #2 (38653,0), 5 CTAs running
GPGPU-Sim uArch: Shader 9 finished CTA #2 (38676,0), 5 CTAs running
GPGPU-Sim PTX: 15400000 instructions simulated : ctaid=(70,0,0) tid=(27,0,0)
GPGPU-Sim PTX: 15500000 instructions simulated : ctaid=(71,0,0) tid=(81,0,0)
GPGPU-Sim uArch: Shader 4 finished CTA #2 (39052,0), 5 CTAs running
GPGPU-Sim uArch: Shader 11 finished CTA #2 (39131,0), 5 CTAs running
GPGPU-Sim uArch: Shader 5 finished CTA #2 (39219,0), 5 CTAs running
GPGPU-Sim PTX: 15600000 instructions simulated : ctaid=(35,0,0) tid=(67,0,0)
GPGPU-Sim PTX: 15700000 instructions simulated : ctaid=(60,0,0) tid=(179,0,0)
GPGPU-Sim uArch: cycles simulated: 39500  inst.: 14974691 (ipc=379.1) sim_rate=383966 (inst/sec) elapsed = 0:0:00:39 / Mon Feb 29 20:27:03 2016
GPGPU-Sim PTX: 15800000 instructions simulated : ctaid=(115,0,0) tid=(86,0,0)
GPGPU-Sim uArch: Shader 14 finished CTA #2 (39787,0), 5 CTAs running
GPGPU-Sim PTX: 15900000 instructions simulated : ctaid=(83,0,0) tid=(153,0,0)
GPGPU-Sim PTX: 16000000 instructions simulated : ctaid=(56,0,0) tid=(215,0,0)
GPGPU-Sim PTX: 16100000 instructions simulated : ctaid=(102,0,0) tid=(110,0,0)
GPGPU-Sim uArch: cycles simulated: 40500  inst.: 15416470 (ipc=380.7) sim_rate=385411 (inst/sec) elapsed = 0:0:00:40 / Mon Feb 29 20:27:04 2016
GPGPU-Sim PTX: 16200000 instructions simulated : ctaid=(54,0,0) tid=(123,0,0)
GPGPU-Sim uArch: Shader 1 finished CTA #3 (40591,0), 5 CTAs running
GPGPU-Sim PTX: 16300000 instructions simulated : ctaid=(68,0,0) tid=(4,0,0)
GPGPU-Sim uArch: Shader 7 finished CTA #3 (40925,0), 5 CTAs running
GPGPU-Sim PTX: 16400000 instructions simulated : ctaid=(66,0,0) tid=(5,0,0)
GPGPU-Sim uArch: Shader 12 finished CTA #3 (41082,0), 5 CTAs running
GPGPU-Sim PTX: 16500000 instructions simulated : ctaid=(61,0,0) tid=(219,0,0)
GPGPU-Sim PTX: 16600000 instructions simulated : ctaid=(65,0,0) tid=(45,0,0)
GPGPU-Sim uArch: cycles simulated: 41500  inst.: 15900261 (ipc=383.1) sim_rate=387811 (inst/sec) elapsed = 0:0:00:41 / Mon Feb 29 20:27:05 2016
GPGPU-Sim PTX: 16700000 instructions simulated : ctaid=(57,0,0) tid=(45,0,0)
GPGPU-Sim uArch: Shader 4 finished CTA #3 (41589,0), 4 CTAs running
GPGPU-Sim PTX: 16800000 instructions simulated : ctaid=(99,0,0) tid=(110,0,0)
GPGPU-Sim PTX: 16900000 instructions simulated : ctaid=(52,0,0) tid=(133,0,0)
GPGPU-Sim uArch: cycles simulated: 42000  inst.: 16152262 (ipc=384.6) sim_rate=384577 (inst/sec) elapsed = 0:0:00:42 / Mon Feb 29 20:27:06 2016
GPGPU-Sim PTX: 17000000 instructions simulated : ctaid=(66,0,0) tid=(87,0,0)
GPGPU-Sim PTX: 17100000 instructions simulated : ctaid=(57,0,0) tid=(171,0,0)
GPGPU-Sim PTX: 17200000 instructions simulated : ctaid=(68,0,0) tid=(211,0,0)
GPGPU-Sim uArch: Shader 0 finished CTA #3 (42889,0), 4 CTAs running
GPGPU-Sim PTX: 17300000 instructions simulated : ctaid=(76,0,0) tid=(46,0,0)
GPGPU-Sim PTX: 17400000 instructions simulated : ctaid=(66,0,0) tid=(112,0,0)
GPGPU-Sim uArch: Shader 5 finished CTA #3 (43280,0), 4 CTAs running
GPGPU-Sim uArch: Shader 6 finished CTA #2 (43312,0), 5 CTAs running
GPGPU-Sim uArch: Shader 9 finished CTA #3 (43325,0), 4 CTAs running
GPGPU-Sim uArch: Shader 8 finished CTA #3 (43370,0), 5 CTAs running
GPGPU-Sim uArch: Shader 2 finished CTA #3 (43435,0), 5 CTAs running
GPGPU-Sim PTX: 17500000 instructions simulated : ctaid=(80,0,0) tid=(175,0,0)
GPGPU-Sim uArch: cycles simulated: 43500  inst.: 16693719 (ipc=383.8) sim_rate=388226 (inst/sec) elapsed = 0:0:00:43 / Mon Feb 29 20:27:07 2016
GPGPU-Sim uArch: Shader 3 finished CTA #3 (43645,0), 5 CTAs running
GPGPU-Sim uArch: Shader 14 finished CTA #3 (43741,0), 4 CTAs running
GPGPU-Sim PTX: 17600000 instructions simulated : ctaid=(69,0,0) tid=(64,0,0)
GPGPU-Sim uArch: Shader 11 finished CTA #3 (43849,0), 4 CTAs running
GPGPU-Sim PTX: 17700000 instructions simulated : ctaid=(88,0,0) tid=(151,0,0)
GPGPU-Sim uArch: Shader 13 finished CTA #3 (44205,0), 5 CTAs running
GPGPU-Sim uArch: Shader 10 finished CTA #3 (44319,0), 5 CTAs running
GPGPU-Sim uArch: cycles simulated: 44500  inst.: 16971708 (ipc=381.4) sim_rate=385720 (inst/sec) elapsed = 0:0:00:44 / Mon Feb 29 20:27:08 2016
GPGPU-Sim PTX: 17800000 instructions simulated : ctaid=(65,0,0) tid=(55,0,0)
GPGPU-Sim PTX: 17900000 instructions simulated : ctaid=(123,0,0) tid=(35,0,0)
GPGPU-Sim PTX: 18000000 instructions simulated : ctaid=(65,0,0) tid=(75,0,0)
GPGPU-Sim PTX: 18100000 instructions simulated : ctaid=(80,0,0) tid=(5,0,0)
GPGPU-Sim uArch: cycles simulated: 45500  inst.: 17267055 (ipc=379.5) sim_rate=383712 (inst/sec) elapsed = 0:0:00:45 / Mon Feb 29 20:27:09 2016
GPGPU-Sim PTX: 18200000 instructions simulated : ctaid=(97,0,0) tid=(37,0,0)
GPGPU-Sim PTX: 18300000 instructions simulated : ctaid=(74,0,0) tid=(69,0,0)
GPGPU-Sim PTX: 18400000 instructions simulated : ctaid=(71,0,0) tid=(61,0,0)
GPGPU-Sim PTX: 18500000 instructions simulated : ctaid=(88,0,0) tid=(3,0,0)
GPGPU-Sim PTX: 18600000 instructions simulated : ctaid=(60,0,0) tid=(69,0,0)
GPGPU-Sim uArch: cycles simulated: 47000  inst.: 17824878 (ipc=379.3) sim_rate=387497 (inst/sec) elapsed = 0:0:00:46 / Mon Feb 29 20:27:10 2016
GPGPU-Sim PTX: 18700000 instructions simulated : ctaid=(64,0,0) tid=(67,0,0)
GPGPU-Sim PTX: 18800000 instructions simulated : ctaid=(50,0,0) tid=(62,0,0)
GPGPU-Sim PTX: 18900000 instructions simulated : ctaid=(90,0,0) tid=(240,0,0)
GPGPU-Sim uArch: Shader 6 finished CTA #3 (47727,0), 4 CTAs running
GPGPU-Sim PTX: 19000000 instructions simulated : ctaid=(104,0,0) tid=(245,0,0)
GPGPU-Sim uArch: Shader 12 finished CTA #4 (47784,0), 4 CTAs running
GPGPU-Sim uArch: Shader 0 finished CTA #4 (47825,0), 3 CTAs running
GPGPU-Sim uArch: Shader 14 finished CTA #4 (47925,0), 3 CTAs running
GPGPU-Sim PTX: 19100000 instructions simulated : ctaid=(123,0,0) tid=(119,0,0)
GPGPU-Sim uArch: Shader 5 finished CTA #4 (47956,0), 3 CTAs running
GPGPU-Sim uArch: cycles simulated: 48000  inst.: 18250989 (ipc=380.2) sim_rate=388318 (inst/sec) elapsed = 0:0:00:47 / Mon Feb 29 20:27:11 2016
GPGPU-Sim PTX: 19200000 instructions simulated : ctaid=(103,0,0) tid=(236,0,0)
GPGPU-Sim PTX: 19300000 instructions simulated : ctaid=(94,0,0) tid=(6,0,0)
GPGPU-Sim PTX: 19400000 instructions simulated : ctaid=(93,0,0) tid=(141,0,0)
GPGPU-Sim uArch: Shader 9 finished CTA #4 (48606,0), 3 CTAs running
GPGPU-Sim PTX: 19500000 instructions simulated : ctaid=(88,0,0) tid=(250,0,0)
GPGPU-Sim uArch: Shader 7 finished CTA #4 (48719,0), 4 CTAs running
GPGPU-Sim PTX: 19600000 instructions simulated : ctaid=(109,0,0) tid=(189,0,0)
GPGPU-Sim uArch: Shader 1 finished CTA #4 (48945,0), 4 CTAs running
GPGPU-Sim uArch: cycles simulated: 49000  inst.: 18757922 (ipc=382.8) sim_rate=390790 (inst/sec) elapsed = 0:0:00:48 / Mon Feb 29 20:27:12 2016
GPGPU-Sim PTX: 19700000 instructions simulated : ctaid=(82,0,0) tid=(34,0,0)
GPGPU-Sim uArch: Shader 13 finished CTA #4 (49094,0), 4 CTAs running
GPGPU-Sim PTX: 19800000 instructions simulated : ctaid=(102,0,0) tid=(161,0,0)
GPGPU-Sim PTX: 19900000 instructions simulated : ctaid=(77,0,0) tid=(173,0,0)
GPGPU-Sim uArch: Shader 11 finished CTA #4 (49593,0), 3 CTAs running
GPGPU-Sim uArch: Shader 4 finished CTA #4 (49737,0), 3 CTAs running
GPGPU-Sim PTX: 20000000 instructions simulated : ctaid=(76,0,0) tid=(190,0,0)
GPGPU-Sim PTX: 20100000 instructions simulated : ctaid=(78,0,0) tid=(201,0,0)
GPGPU-Sim uArch: cycles simulated: 50000  inst.: 19186328 (ipc=383.7) sim_rate=391557 (inst/sec) elapsed = 0:0:00:49 / Mon Feb 29 20:27:13 2016
GPGPU-Sim uArch: Shader 3 finished CTA #4 (50034,0), 4 CTAs running
GPGPU-Sim uArch: Shader 8 finished CTA #4 (50078,0), 4 CTAs running
GPGPU-Sim PTX: 20200000 instructions simulated : ctaid=(91,0,0) tid=(19,0,0)
GPGPU-Sim PTX: 20300000 instructions simulated : ctaid=(65,0,0) tid=(106,0,0)
GPGPU-Sim PTX: 20400000 instructions simulated : ctaid=(91,0,0) tid=(105,0,0)
GPGPU-Sim uArch: Shader 10 finished CTA #4 (50765,0), 4 CTAs running
GPGPU-Sim PTX: 20500000 instructions simulated : ctaid=(78,0,0) tid=(191,0,0)
GPGPU-Sim PTX: 20600000 instructions simulated : ctaid=(125,0,0) tid=(110,0,0)
GPGPU-Sim uArch: cycles simulated: 51000  inst.: 19660589 (ipc=385.5) sim_rate=393211 (inst/sec) elapsed = 0:0:00:50 / Mon Feb 29 20:27:14 2016
GPGPU-Sim PTX: 20700000 instructions simulated : ctaid=(125,0,0) tid=(181,0,0)
GPGPU-Sim uArch: Shader 12 finished CTA #5 (51273,0), 3 CTAs running
GPGPU-Sim PTX: 20800000 instructions simulated : ctaid=(105,0,0) tid=(190,0,0)
GPGPU-Sim PTX: 20900000 instructions simulated : ctaid=(104,0,0) tid=(167,0,0)
GPGPU-Sim uArch: Shader 0 finished CTA #5 (51636,0), 2 CTAs running
GPGPU-Sim PTX: 21000000 instructions simulated : ctaid=(87,0,0) tid=(239,0,0)
GPGPU-Sim uArch: Shader 2 finished CTA #4 (51830,0), 4 CTAs running
GPGPU-Sim PTX: 21100000 instructions simulated : ctaid=(116,0,0) tid=(37,0,0)
GPGPU-Sim uArch: cycles simulated: 52000  inst.: 20190200 (ipc=388.3) sim_rate=395886 (inst/sec) elapsed = 0:0:00:51 / Mon Feb 29 20:27:15 2016
GPGPU-Sim uArch: Shader 5 finished CTA #5 (52024,0), 2 CTAs running
GPGPU-Sim uArch: Shader 6 finished CTA #4 (52036,0), 3 CTAs running
GPGPU-Sim PTX: 21200000 instructions simulated : ctaid=(112,0,0) tid=(61,0,0)
GPGPU-Sim uArch: Shader 7 finished CTA #5 (52197,0), 3 CTAs running
GPGPU-Sim PTX: 21300000 instructions simulated : ctaid=(77,0,0) tid=(147,0,0)
GPGPU-Sim PTX: 21400000 instructions simulated : ctaid=(115,0,0) tid=(236,0,0)
GPGPU-Sim uArch: Shader 9 finished CTA #5 (52529,0), 2 CTAs running
GPGPU-Sim PTX: 21500000 instructions simulated : ctaid=(99,0,0) tid=(164,0,0)
GPGPU-Sim uArch: Shader 1 finished CTA #5 (52710,0), 3 CTAs running
GPGPU-Sim PTX: 21600000 instructions simulated : ctaid=(110,0,0) tid=(105,0,0)
GPGPU-Sim PTX: 21700000 instructions simulated : ctaid=(93,0,0) tid=(90,0,0)
GPGPU-Sim uArch: cycles simulated: 53000  inst.: 20718467 (ipc=390.9) sim_rate=398432 (inst/sec) elapsed = 0:0:00:52 / Mon Feb 29 20:27:16 2016
GPGPU-Sim PTX: 21800000 instructions simulated : ctaid=(84,0,0) tid=(224,0,0)
GPGPU-Sim uArch: Shader 14 finished CTA #5 (53193,0), 2 CTAs running
GPGPU-Sim PTX: 21900000 instructions simulated : ctaid=(125,0,0) tid=(229,0,0)
GPGPU-Sim uArch: Shader 13 finished CTA #5 (53455,0), 3 CTAs running
GPGPU-Sim PTX: 22000000 instructions simulated : ctaid=(124,0,0) tid=(236,0,0)
GPGPU-Sim uArch: Shader 8 finished CTA #5 (53637,0), 3 CTAs running
GPGPU-Sim uArch: Shader 11 finished CTA #5 (53645,0), 2 CTAs running
GPGPU-Sim PTX: 22100000 instructions simulated : ctaid=(111,0,0) tid=(143,0,0)
GPGPU-Sim uArch: Shader 3 finished CTA #5 (53890,0), 3 CTAs running
GPGPU-Sim uArch: Shader 4 finished CTA #5 (53917,0), 2 CTAs running
GPGPU-Sim uArch: cycles simulated: 54000  inst.: 21164579 (ipc=391.9) sim_rate=399331 (inst/sec) elapsed = 0:0:00:53 / Mon Feb 29 20:27:17 2016
GPGPU-Sim PTX: 22200000 instructions simulated : ctaid=(113,0,0) tid=(121,0,0)
GPGPU-Sim uArch: Shader 2 finished CTA #5 (54186,0), 3 CTAs running
GPGPU-Sim PTX: 22300000 instructions simulated : ctaid=(116,0,0) tid=(24,0,0)
GPGPU-Sim PTX: 22400000 instructions simulated : ctaid=(120,0,0) tid=(72,0,0)
GPGPU-Sim uArch: Shader 10 finished CTA #5 (54784,0), 3 CTAs running
GPGPU-Sim PTX: 22500000 instructions simulated : ctaid=(92,0,0) tid=(81,0,0)
GPGPU-Sim PTX: 22600000 instructions simulated : ctaid=(92,0,0) tid=(40,0,0)
GPGPU-Sim PTX: 22700000 instructions simulated : ctaid=(92,0,0) tid=(23,0,0)
GPGPU-Sim uArch: cycles simulated: 55500  inst.: 21718042 (ipc=391.3) sim_rate=402185 (inst/sec) elapsed = 0:0:00:54 / Mon Feb 29 20:27:18 2016
GPGPU-Sim PTX: 22800000 instructions simulated : ctaid=(122,0,0) tid=(27,0,0)
GPGPU-Sim uArch: Shader 6 finished CTA #5 (55560,0), 2 CTAs running
GPGPU-Sim PTX: 22900000 instructions simulated : ctaid=(124,0,0) tid=(59,0,0)
GPGPU-Sim PTX: 23000000 instructions simulated : ctaid=(105,0,0) tid=(43,0,0)
GPGPU-Sim PTX: 23100000 instructions simulated : ctaid=(102,0,0) tid=(87,0,0)
GPGPU-Sim uArch: Shader 12 finished CTA #0 (56403,0), 2 CTAs running
GPGPU-Sim PTX: 23200000 instructions simulated : ctaid=(121,0,0) tid=(141,0,0)
GPGPU-Sim uArch: cycles simulated: 56500  inst.: 22153739 (ipc=392.1) sim_rate=402795 (inst/sec) elapsed = 0:0:00:55 / Mon Feb 29 20:27:19 2016
GPGPU-Sim PTX: 23300000 instructions simulated : ctaid=(94,0,0) tid=(100,0,0)
GPGPU-Sim PTX: 23400000 instructions simulated : ctaid=(96,0,0) tid=(100,0,0)
GPGPU-Sim PTX: 23500000 instructions simulated : ctaid=(109,0,0) tid=(37,0,0)
GPGPU-Sim uArch: Shader 0 finished CTA #0 (57129,0), 1 CTAs running
GPGPU-Sim PTX: 23600000 instructions simulated : ctaid=(125,0,0) tid=(161,0,0)
GPGPU-Sim uArch: cycles simulated: 57500  inst.: 22602022 (ipc=393.1) sim_rate=403607 (inst/sec) elapsed = 0:0:00:56 / Mon Feb 29 20:27:20 2016
GPGPU-Sim PTX: 23700000 instructions simulated : ctaid=(102,0,0) tid=(103,0,0)
GPGPU-Sim uArch: Shader 14 finished CTA #0 (57544,0), 1 CTAs running
GPGPU-Sim uArch: Shader 7 finished CTA #0 (57602,0), 2 CTAs running
GPGPU-Sim PTX: 23800000 instructions simulated : ctaid=(108,0,0) tid=(139,0,0)
GPGPU-Sim uArch: Shader 5 finished CTA #0 (57853,0), 1 CTAs running
GPGPU-Sim PTX: 23900000 instructions simulated : ctaid=(97,0,0) tid=(26,0,0)
GPGPU-Sim uArch: Shader 9 finished CTA #0 (58285,0), 1 CTAs running
GPGPU-Sim uArch: Shader 11 finished CTA #0 (58287,0), 1 CTAs running
GPGPU-Sim PTX: 24000000 instructions simulated : ctaid=(115,0,0) tid=(115,0,0)
GPGPU-Sim uArch: Shader 1 finished CTA #0 (58364,0), 2 CTAs running
GPGPU-Sim PTX: 24100000 instructions simulated : ctaid=(102,0,0) tid=(200,0,0)
GPGPU-Sim uArch: Shader 13 finished CTA #0 (58729,0), 2 CTAs running
GPGPU-Sim uArch: Shader 4 finished CTA #0 (58907,0), 1 CTAs running
GPGPU-Sim PTX: 24200000 instructions simulated : ctaid=(110,0,0) tid=(105,0,0)
GPGPU-Sim uArch: cycles simulated: 59000  inst.: 23087446 (ipc=391.3) sim_rate=405042 (inst/sec) elapsed = 0:0:00:57 / Mon Feb 29 20:27:21 2016
GPGPU-Sim PTX: 24300000 instructions simulated : ctaid=(109,0,0) tid=(79,0,0)
GPGPU-Sim uArch: Shader 8 finished CTA #0 (59507,0), 2 CTAs running
GPGPU-Sim PTX: 24400000 instructions simulated : ctaid=(111,0,0) tid=(235,0,0)
GPGPU-Sim uArch: Shader 3 finished CTA #0 (59697,0), 2 CTAs running
GPGPU-Sim PTX: 24500000 instructions simulated : ctaid=(124,0,0) tid=(198,0,0)
GPGPU-Sim uArch: Shader 6 finished CTA #0 (60104,0), 1 CTAs running
GPGPU-Sim PTX: 24600000 instructions simulated : ctaid=(104,0,0) tid=(253,0,0)
GPGPU-Sim PTX: 24700000 instructions simulated : ctaid=(119,0,0) tid=(96,0,0)
GPGPU-Sim uArch: cycles simulated: 60500  inst.: 23611644 (ipc=390.3) sim_rate=407097 (inst/sec) elapsed = 0:0:00:58 / Mon Feb 29 20:27:22 2016
GPGPU-Sim uArch: Shader 10 finished CTA #0 (60557,0), 2 CTAs running
GPGPU-Sim uArch: Shader 0 finished CTA #1 (60628,0), 0 CTAs running
GPGPU-Sim uArch: Shader 0 empty (release kernel 1 '_Z13scalarProdGPUPfS_S_ii').
GPGPU-Sim PTX: 24800000 instructions simulated : ctaid=(107,0,0) tid=(247,0,0)
GPGPU-Sim uArch: Shader 12 finished CTA #1 (60789,0), 1 CTAs running
GPGPU-Sim uArch: Shader 5 finished CTA #1 (60888,0), 0 CTAs running
GPGPU-Sim uArch: Shader 5 empty (release kernel 1 '_Z13scalarProdGPUPfS_S_ii').
GPGPU-Sim PTX: 24900000 instructions simulated : ctaid=(120,0,0) tid=(233,0,0)
GPGPU-Sim uArch: Shader 7 finished CTA #1 (61061,0), 1 CTAs running
GPGPU-Sim PTX: 25000000 instructions simulated : ctaid=(125,0,0) tid=(15,0,0)
GPGPU-Sim uArch: Shader 9 finished CTA #1 (61350,0), 0 CTAs running
GPGPU-Sim uArch: Shader 9 empty (release kernel 1 '_Z13scalarProdGPUPfS_S_ii').
GPGPU-Sim uArch: Shader 4 finished CTA #1 (61510,0), 0 CTAs running
GPGPU-Sim uArch: Shader 4 empty (release kernel 1 '_Z13scalarProdGPUPfS_S_ii').
GPGPU-Sim uArch: Shader 1 finished CTA #1 (61512,0), 1 CTAs running
GPGPU-Sim uArch: Shader 14 finished CTA #1 (61585,0), 0 CTAs running
GPGPU-Sim uArch: Shader 14 empty (release kernel 1 '_Z13scalarProdGPUPfS_S_ii').
GPGPU-Sim uArch: Shader 2 finished CTA #0 (61647,0), 2 CTAs running
GPGPU-Sim PTX: 25100000 instructions simulated : ctaid=(110,0,0) tid=(17,0,0)
GPGPU-Sim uArch: Shader 11 finished CTA #1 (62110,0), 0 CTAs running
GPGPU-Sim uArch: Shader 11 empty (release kernel 1 '_Z13scalarProdGPUPfS_S_ii').
GPGPU-Sim PTX: 25200000 instructions simulated : ctaid=(121,0,0) tid=(21,0,0)
GPGPU-Sim uArch: Shader 13 finished CTA #1 (62210,0), 1 CTAs running
GPGPU-Sim uArch: Shader 12 finished CTA #2 (62494,0), 0 CTAs running
GPGPU-Sim uArch: Shader 12 empty (release kernel 1 '_Z13scalarProdGPUPfS_S_ii').
GPGPU-Sim uArch: cycles simulated: 62500  inst.: 24118383 (ipc=385.9) sim_rate=408786 (inst/sec) elapsed = 0:0:00:59 / Mon Feb 29 20:27:23 2016
GPGPU-Sim uArch: Shader 8 finished CTA #1 (62608,0), 1 CTAs running
GPGPU-Sim PTX: 25300000 instructions simulated : ctaid=(127,0,0) tid=(77,0,0)
GPGPU-Sim uArch: Shader 2 finished CTA #1 (63160,0), 1 CTAs running
GPGPU-Sim PTX: 25400000 instructions simulated : ctaid=(121,0,0) tid=(207,0,0)
GPGPU-Sim uArch: Shader 6 finished CTA #1 (63244,0), 0 CTAs running
GPGPU-Sim uArch: Shader 6 empty (release kernel 1 '_Z13scalarProdGPUPfS_S_ii').
GPGPU-Sim uArch: Shader 7 finished CTA #2 (63446,0), 0 CTAs running
GPGPU-Sim uArch: Shader 7 empty (release kernel 1 '_Z13scalarProdGPUPfS_S_ii').
GPGPU-Sim uArch: Shader 10 finished CTA #1 (63449,0), 1 CTAs running
GPGPU-Sim uArch: Shader 3 finished CTA #1 (63761,0), 1 CTAs running
GPGPU-Sim PTX: 25500000 instructions simulated : ctaid=(122,0,0) tid=(141,0,0)
GPGPU-Sim uArch: Shader 13 finished CTA #2 (64464,0), 0 CTAs running
GPGPU-Sim uArch: Shader 13 empty (release kernel 1 '_Z13scalarProdGPUPfS_S_ii').
GPGPU-Sim uArch: Shader 1 finished CTA #2 (64521,0), 0 CTAs running
GPGPU-Sim uArch: Shader 1 empty (release kernel 1 '_Z13scalarProdGPUPfS_S_ii').
GPGPU-Sim uArch: Shader 8 finished CTA #2 (64891,0), 0 CTAs running
GPGPU-Sim uArch: Shader 8 empty (release kernel 1 '_Z13scalarProdGPUPfS_S_ii').
GPGPU-Sim PTX: 25600000 instructions simulated : ctaid=(122,0,0) tid=(61,0,0)
GPGPU-Sim uArch: Shader 10 finished CTA #2 (65494,0), 0 CTAs running
GPGPU-Sim uArch: Shader 10 empty (release kernel 1 '_Z13scalarProdGPUPfS_S_ii').
GPGPU-Sim uArch: Shader 2 finished CTA #2 (65539,0), 0 CTAs running
GPGPU-Sim uArch: Shader 2 empty (release kernel 1 '_Z13scalarProdGPUPfS_S_ii').
GPGPU-Sim uArch: Shader 3 finished CTA #2 (65764,0), 0 CTAs running
GPGPU-Sim uArch: Shader 3 empty (release kernel 1 '_Z13scalarProdGPUPfS_S_ii').
GPGPU-Sim uArch: GPU detected kernel '_Z13scalarProdGPUPfS_S_ii' finished on shader 3.
GPGPU-Sim: synchronize waiting for inactive GPU simulation
kernel_name = _Z13scalarProdGPUPfS_S_ii 
kernel_launch_uid = 1 
gpu_sim_cycle = 65765
gpu_sim_insn = 24441600
gpu_ipc =     371.6506
gpu_tot_sim_cycle = 65765
gpu_tot_sim_insn = 24441600
gpu_tot_ipc =     371.6506
gpu_tot_issued_cta = 128
gpu_stall_dramfull = 33344
gpu_stall_icnt2sh    = 352199
gpu_total_sim_rate=407360

========= Core cache stats =========
L1I_cache:
	L1I_total_cache_accesses = 463616
	L1I_total_cache_misses = 2062
	L1I_total_cache_miss_rate = 0.0044
	L1I_total_cache_pending_hits = 0
	L1I_total_cache_reservation_fails = 6316
L1D_cache:
	L1D_cache_core[0]: Access = 4112, Miss = 4112, Miss_rate = 1.000, Pending_hits = 0, Reservation_fails = 33656
	L1D_cache_core[1]: Access = 4626, Miss = 4626, Miss_rate = 1.000, Pending_hits = 0, Reservation_fails = 36207
	L1D_cache_core[2]: Access = 4626, Miss = 4626, Miss_rate = 1.000, Pending_hits = 0, Reservation_fails = 39450
	L1D_cache_core[3]: Access = 4626, Miss = 4626, Miss_rate = 1.000, Pending_hits = 0, Reservation_fails = 37994
	L1D_cache_core[4]: Access = 4112, Miss = 4112, Miss_rate = 1.000, Pending_hits = 0, Reservation_fails = 35093
	L1D_cache_core[5]: Access = 4112, Miss = 4112, Miss_rate = 1.000, Pending_hits = 0, Reservation_fails = 34327
	L1D_cache_core[6]: Access = 4112, Miss = 4112, Miss_rate = 1.000, Pending_hits = 0, Reservation_fails = 37951
	L1D_cache_core[7]: Access = 4626, Miss = 4626, Miss_rate = 1.000, Pending_hits = 0, Reservation_fails = 36488
	L1D_cache_core[8]: Access = 4626, Miss = 4626, Miss_rate = 1.000, Pending_hits = 0, Reservation_fails = 37138
	L1D_cache_core[9]: Access = 4112, Miss = 4112, Miss_rate = 1.000, Pending_hits = 0, Reservation_fails = 34606
	L1D_cache_core[10]: Access = 4626, Miss = 4626, Miss_rate = 1.000, Pending_hits = 0, Reservation_fails = 37881
	L1D_cache_core[11]: Access = 4112, Miss = 4112, Miss_rate = 1.000, Pending_hits = 0, Reservation_fails = 34489
	L1D_cache_core[12]: Access = 4626, Miss = 4626, Miss_rate = 1.000, Pending_hits = 0, Reservation_fails = 35117
	L1D_cache_core[13]: Access = 4626, Miss = 4626, Miss_rate = 1.000, Pending_hits = 0, Reservation_fails = 37998
	L1D_cache_core[14]: Access = 4112, Miss = 4112, Miss_rate = 1.000, Pending_hits = 0, Reservation_fails = 35522
	L1D_total_cache_accesses = 65792
	L1D_total_cache_misses = 65792
	L1D_total_cache_miss_rate = 1.0000
	L1D_total_cache_pending_hits = 0
	L1D_total_cache_reservation_fails = 543917
	L1D_cache_data_port_util = 0.000
	L1D_cache_fill_port_util = 0.069
L1C_cache:
	L1C_total_cache_accesses = 19712
	L1C_total_cache_misses = 480
	L1C_total_cache_miss_rate = 0.0244
	L1C_total_cache_pending_hits = 0
	L1C_total_cache_reservation_fails = 3264
L1T_cache:
	L1T_total_cache_accesses = 0
	L1T_total_cache_misses = 0
	L1T_total_cache_pending_hits = 0
	L1T_total_cache_reservation_fails = 0

Total_core_cache_stats:
	Total_core_cache_stats_breakdown[GLOBAL_ACC_R][MISS] = 65536
	Total_core_cache_stats_breakdown[GLOBAL_ACC_R][RESERVATION_FAIL] = 543252
	Total_core_cache_stats_breakdown[CONST_ACC_R][HIT] = 19232
	Total_core_cache_stats_breakdown[CONST_ACC_R][MISS] = 480
	Total_core_cache_stats_breakdown[CONST_ACC_R][RESERVATION_FAIL] = 3264
	Total_core_cache_stats_breakdown[GLOBAL_ACC_W][MISS] = 256
	Total_core_cache_stats_breakdown[GLOBAL_ACC_W][RESERVATION_FAIL] = 665
	Total_core_cache_stats_breakdown[INST_ACC_R][HIT] = 461554
	Total_core_cache_stats_breakdown[INST_ACC_R][MISS] = 2062
	Total_core_cache_stats_breakdown[INST_ACC_R][RESERVATION_FAIL] = 6316
Shader 0 warp_id issue ditsribution:
warp_id:
0, 1, 2, 3, 4, 5, 6, 7, 8, 9, 10, 11, 12, 13, 14, 15, 16, 17, 18, 19, 20, 21, 22, 23, 24, 25, 26, 27, 28, 29, 30, 31, 32, 33, 34, 35, 36, 37, 38, 39, 40, 41, 42, 43, 44, 45, 46, 47, 
distro:
2148, 1644, 1564, 1564, 1484, 1484, 1484, 1484, 2148, 1644, 1564, 1564, 1484, 1484, 1484, 1484, 1074, 822, 782, 782, 742, 742, 742, 742, 1074, 822, 782, 782, 742, 742, 742, 742, 1074, 822, 782, 782, 742, 742, 742, 742, 1074, 822, 782, 782, 742, 742, 742, 742, 
gpgpu_n_tot_thrd_icount = 26329088
gpgpu_n_tot_w_icount = 822784
gpgpu_n_stall_shd_mem = 547181
gpgpu_n_mem_read_local = 0
gpgpu_n_mem_write_local = 0
gpgpu_n_mem_read_global = 65536
gpgpu_n_mem_write_global = 256
gpgpu_n_mem_texture = 0
gpgpu_n_mem_const = 15
gpgpu_n_load_insn  = 2097152
gpgpu_n_store_insn = 256
gpgpu_n_shmem_insn = 1048064
gpgpu_n_tex_insn = 0
gpgpu_n_const_mem_insn = 0
gpgpu_n_param_mem_insn = 622848
gpgpu_n_shmem_bkconflict = 0
gpgpu_n_cache_bkconflict = 0
gpgpu_n_intrawarp_mshr_merge = 0
gpgpu_n_cmem_portconflict = 3264
gpgpu_stall_shd_mem[c_mem][bk_conf] = 3264
gpgpu_stall_shd_mem[c_mem][mshr_rc] = 0
gpgpu_stall_shd_mem[c_mem][icnt_rc] = 0
gpgpu_stall_shd_mem[c_mem][data_port_stall] = 0
gpgpu_stall_shd_mem[t_mem][mshr_rc] = 0
gpgpu_stall_shd_mem[t_mem][icnt_rc] = 0
gpgpu_stall_shd_mem[t_mem][data_port_stall] = 0
gpgpu_stall_shd_mem[s_mem][bk_conf] = 0
gpgpu_stall_shd_mem[gl_mem][bk_conf] = 0
gpgpu_stall_shd_mem[gl_mem][coal_stall] = 543917
gpgpu_stall_shd_mem[gl_mem][data_port_stall] = 0
gpgpu_stall_shd_mem[g_mem_ld][mshr_rc] = 0
gpgpu_stall_shd_mem[g_mem_ld][icnt_rc] = 0
gpgpu_stall_shd_mem[g_mem_ld][wb_icnt_rc] = 0
gpgpu_stall_shd_mem[g_mem_ld][wb_rsrv_fail] = 0
gpgpu_stall_shd_mem[g_mem_st][mshr_rc] = 0
gpgpu_stall_shd_mem[g_mem_st][icnt_rc] = 0
gpgpu_stall_shd_mem[g_mem_st][wb_icnt_rc] = 0
gpgpu_stall_shd_mem[g_mem_st][wb_rsrv_fail] = 0
gpgpu_stall_shd_mem[l_mem_ld][mshr_rc] = 0
gpgpu_stall_shd_mem[l_mem_ld][icnt_rc] = 0
gpgpu_stall_shd_mem[l_mem_ld][wb_icnt_rc] = 0
gpgpu_stall_shd_mem[l_mem_ld][wb_rsrv_fail] = 0
gpgpu_stall_shd_mem[l_mem_st][mshr_rc] = 0
gpgpu_stall_shd_mem[l_mem_st][icnt_rc] = 0
gpgpu_stall_shd_mem[l_mem_ld][wb_icnt_rc] = 0
gpgpu_stall_shd_mem[l_mem_ld][wb_rsrv_fail] = 0
gpu_reg_bank_conflict_stalls = 0
Warp Occupancy Distribution:
Stall:755535	W0_Idle:27241	W0_Scoreboard:290326	W1:6656	W2:5120	W3:0	W4:5120	W5:0	W6:0	W7:0	W8:5120	W9:0	W10:0	W11:0	W12:0	W13:0	W14:0	W15:0	W16:5120	W17:0	W18:0	W19:0	W20:0	W21:0	W22:0	W23:0	W24:0	W25:0	W26:0	W27:0	W28:0	W29:0	W30:0	W31:0	W32:795648
traffic_breakdown_coretomem[CONST_ACC_R] = 120 {8:15,}
traffic_breakdown_coretomem[GLOBAL_ACC_R] = 524288 {8:65536,}
traffic_breakdown_coretomem[GLOBAL_ACC_W] = 10240 {40:256,}
traffic_breakdown_coretomem[INST_ACC_R] = 840 {8:105,}
traffic_breakdown_memtocore[CONST_ACC_R] = 1080 {72:15,}
traffic_breakdown_memtocore[GLOBAL_ACC_R] = 8912896 {136:65536,}
traffic_breakdown_memtocore[GLOBAL_ACC_W] = 2048 {8:256,}
traffic_breakdown_memtocore[INST_ACC_R] = 14280 {136:105,}
maxmrqlatency = 489 
maxdqlatency = 0 
maxmflatency = 974 
averagemflatency = 350 
max_icnt2mem_latency = 241 
max_icnt2sh_latency = 65764 
mrq_lat_table:42327 	1574 	1974 	4133 	7555 	5431 	2340 	228 	11 	0 	0 	0 	0 	0 	0 	0 	0 	0 	0 	0 	0 	0 	0 	0 	0 	0 	0 	0 	0 	0 	0 	0 	
dq_lat_table:0 	0 	0 	0 	0 	0 	0 	0 	0 	0 	0 	0 	0 	0 	0 	0 	0 	0 	0 	0 	0 	0 	0 	0 	0 	0 	0 	0 	0 	0 	0 	0 	
mf_lat_table:0 	0 	0 	0 	0 	0 	0 	229 	63997 	1581 	0 	0 	0 	0 	0 	0 	0 	0 	0 	0 	0 	0 	0 	0 	0 	0 	0 	0 	0 	0 	0 	0 	
icnt2mem_lat_table:0 	0 	0 	58088 	4863 	1300 	1267 	394 	0 	0 	0 	0 	0 	0 	0 	0 	0 	0 	0 	0 	0 	0 	0 	0 	
icnt2sh_lat_table:0 	0 	0 	8064 	34991 	20937 	1558 	1 	0 	0 	0 	0 	0 	0 	84 	170 	2 	0 	0 	0 	0 	0 	0 	0 	
mf_lat_pw_table:0 	0 	0 	0 	0 	0 	0 	3 	126 	0 	0 	0 	0 	0 	0 	0 	0 	0 	0 	0 	0 	0 	0 	0 	0 	0 	0 	0 	0 	0 	0 	0 	
maximum concurrent accesses to same row:
dram[0]:         5         6         5         6         5         6         6         6         6         5         6         5         6         5         7         6 
dram[1]:         4         6         6         6         6         5         6         6         6         6         6         6         6         5         6         6 
dram[2]:         5         6         6         4         6         5         6         6         4         6         4         6         5         6         6        10 
dram[3]:         6         4         6         6         4         6         6         6         6         6         5         6         6         6         6         6 
dram[4]:         5         6         5         6         5         4         5         6         6         5         6         4         6         5         7         6 
dram[5]:         5         6         6         6         6         4         5         6         6         6         5         5         6         6         6         6 
maximum service time to same row:
dram[0]:      1046      1931      1913      1916      1929      1921      1938      1913      1906      1947      1910      1950      1932      1937      1951      1929 
dram[1]:      1431      1935      1917      1921      1933      1925      1944      1916      1913      1951      1915      1987      1937      1941      1957      1932 
dram[2]:      1939      1907      1921      1938      1943      1929      1949      1909      1915      1922      1919      1925      1941      1960      1963      1997 
dram[3]:      1944      1910      1925      1943      1947      1931      1954      1915      1919      1926      1922      1929      1945      1965      2086      1949 
dram[4]:      1922      1915      1907      1949      1913      1938      1904      1919      1937      1931      1938      1932      1929      1972      1921      1954 
dram[5]:      1926      1919      1910      1953      1916      1941      1909      1922      1941      1935      1943      1938      1932      1975      1925      1957 
average row accesses per activate:
dram[0]:  1.328740  1.284895  1.282443  1.315068  1.337255  1.306513  1.320825  1.313433  1.318352  1.353846  1.346457  1.361660  1.360324  1.352113  1.382716  1.382716 
dram[1]:  1.243542  1.289827  1.354839  1.335984  1.334638  1.281955  1.303704  1.291743  1.366990  1.320825  1.357143  1.298677  1.349398  1.335984  1.312500  1.368635 
dram[2]:  1.308738  1.304854  1.335984  1.260788  1.316602  1.341177  1.291743  1.356455  1.303704  1.303704  1.312860  1.347826  1.328063  1.377049  1.394191  1.357576 
dram[3]:  1.272212  1.287356  1.330693  1.349398  1.270019  1.359841  1.310987  1.330813  1.361702  1.369650  1.305344  1.386179  1.307393  1.400000  1.330693  1.328063 
dram[4]:  1.352113  1.299807  1.299807  1.352113  1.286792  1.310345  1.348659  1.348659  1.338403  1.361702  1.324427  1.309021  1.352113  1.338645  1.354839  1.357576 
dram[5]:  1.275142  1.280000  1.335984  1.325444  1.342520  1.276119  1.335863  1.340952  1.383104  1.335863  1.387879  1.309021  1.379877  1.312500  1.335984  1.322835 
average row locality = 65573/49343 = 1.328922
number of total memory accesses made:
dram[0]:         0         0         0         0         0         0         0         0         0         0         0         0         0         0         0         0 
dram[1]:         0         0         0         0         0         0         0         0         0         0         0         0         0         0         0         0 
dram[2]:         0         0         0         0         0         0         0         0         0         0         0         0         0         0         0         0 
dram[3]:         0         0         0         0         0         0         0         0         0         0         0         0         0         0         0         0 
dram[4]:         0         0         0         0         0         0         0         0         0         0         0         0         0         0         0         0 
dram[5]:         0         0         0         0         0         0         0         0         0         0         0         0         0         0         0         0 
total accesses: 0
min_bank_accesses = 0!
min_chip_accesses = 0!
number of total read accesses:
dram[0]:       675       672       672       672       682       682       704       704       704       704       684       684       672       672       672       672 
dram[1]:       674       672       672       672       682       682       704       704       704       704       684       684       672       672       672       672 
dram[2]:       674       672       672       672       682       684       704       704       704       704       684       682       672       672       672       672 
dram[3]:       673       672       672       672       682       684       704       704       704       704       684       682       672       672       672       672 
dram[4]:       672       672       672       672       682       684       704       704       704       704       685       682       672       672       672       672 
dram[5]:       672       672       672       672       682       684       704       704       704       704       684       682       672       672       672       672 
total reads: 65553
bank skew: 704/672 = 1.05
chip skew: 10927/10924 = 1.00
number of total write accesses:
dram[0]:         0         0         0         0         0         0         0         0         0         0         0         5         0         0         0         0 
dram[1]:         0         0         0         0         0         0         0         0         0         0         0         3         0         0         0         0 
dram[2]:         0         0         0         0         0         0         0         0         0         0         0         0         0         0         0         0 
dram[3]:         0         0         0         0         0         0         0         0         0         0         0         0         0         0         0         0 
dram[4]:         0         0         0         0         0         0         0         0         0         0         9         0         0         0         0         0 
dram[5]:         0         0         0         0         0         0         0         0         0         0         3         0         0         0         0         0 
total reads: 20
min_bank_accesses = 0!
min_chip_accesses = 0!
average mf latency per bank:
dram[0]:        364       348       362       349       363       351       366       354       356       344       362       370       357       351       357       347
dram[1]:        355       349       350       346       355       347       350       348       343       342       349       363       349       350       350       352
dram[2]:        343       365       345       363       347       367       348       368       337       359       349       364       347       361       345       368
dram[3]:        341       349       339       343       345       353       346       357       339       348       344       351       348       353       343       353
dram[4]:        356       349       352       347       354       351       356       352       347       348       365       349       351       352       349       351
dram[5]:        355       338       352       338       350       339       359       344       350       335       372       342       351       345       351       339
maximum mf latency per bank:
dram[0]:        624       625       686       582       603       629       714       610       621       606       579       660       582       588       606       629
dram[1]:        605       547       589       520       638       562       634       555       627       577       671       974       623       562       604       600
dram[2]:        607       637       652       725       602       641       628       707       619       684       577       704       598       644       619       718
dram[3]:        570       577       624       540       632       629       587       616       580       605       554       620       562       587       554       584
dram[4]:        601       535       599       550       559       568       614       593       614       593       657       584       635       578       607       617
dram[5]:        621       599       573       537       625       583       575       616       598       619       637       556       622       635       569       549

Number of Memory Banks Accessed per Memory Operation per Warp (from 0):
0	0	0	0	0	0	0	0	0	0	0	0	0	0	0	0	0	0	0	0	0	0	0	0	0	0	0	0	0	0	0	0	0	0	0	0	0	0	0	0	0	0	0	0	0	0	0	0	0	0	0	0	0	0	0	0	0	0	0	0	0	0	0	0	0	0	0	0	0	0	0	0	0	0	0	0	0	0	0	0	0	0	0	0	0	0	0	0	0	0	0	0	0	0	0	0	
Average # of Memory Banks Accessed per Memory Operation per Warp=-nan

position of mrq chosen
0	0	0	0	0	0	0	0	0	0	0	0	0	0	0	0	

average position of mrq chosen = -nan
Memory Partition 0: 
Cache L2_bank_000:
MSHR contents

Cache L2_bank_001:
MSHR contents

In Dram Latency Queue (total = 0): 
DRAM[0]: 16 bks, busW=4 BL=8 CL=12, tRRD=2 tCCD=6, tRCD=12 tRAS=28 tRP=12 tRC=40
n_cmd=86809 n_nop=48568 n_act=8198 n_pre=8182 n_req=10932 n_rd=21854 n_write=7 bw_util=0.5037
n_activity=79340 dram_eff=0.5511
bk0: 1350a 63750i bk1: 1344a 63718i bk2: 1344a 62637i bk3: 1344a 63527i bk4: 1364a 62977i bk5: 1364a 62891i bk6: 1408a 61216i bk7: 1408a 61050i bk8: 1408a 62522i bk9: 1408a 63195i bk10: 1368a 63443i bk11: 1368a 63580i bk12: 1344a 63403i bk13: 1344a 63062i bk14: 1344a 62922i bk15: 1344a 63428i 
dram_util_bins: 0 0 0 0 0 0 0 0 0 0
dram_eff_bins: 0 0 0 0 0 0 0 0 0 0
mrqq: max=16 avg=1.91054
Memory Partition 1: 
Cache L2_bank_002:
MSHR contents

Cache L2_bank_003:
MSHR contents

In Dram Latency Queue (total = 0): 
DRAM[1]: 16 bks, busW=4 BL=8 CL=12, tRRD=2 tCCD=6, tRCD=12 tRAS=28 tRP=12 tRC=40
n_cmd=86809 n_nop=48420 n_act=8275 n_pre=8259 n_req=10929 n_rd=21852 n_write=3 bw_util=0.5035
n_activity=79218 dram_eff=0.5518
bk0: 1348a 62942i bk1: 1344a 64147i bk2: 1344a 64568i bk3: 1344a 64310i bk4: 1364a 63648i bk5: 1364a 63271i bk6: 1408a 61349i bk7: 1408a 61173i bk8: 1408a 64121i bk9: 1408a 62945i bk10: 1368a 64111i bk11: 1368a 62748i bk12: 1344a 63730i bk13: 1344a 63454i bk14: 1344a 63242i bk15: 1344a 63326i 
dram_util_bins: 0 0 0 0 0 0 0 0 0 0
dram_eff_bins: 0 0 0 0 0 0 0 0 0 0
mrqq: max=16 avg=1.68403
Memory Partition 2: 
Cache L2_bank_004:
MSHR contents

Cache L2_bank_005:
MSHR contents

In Dram Latency Queue (total = 0): 
DRAM[2]: 16 bks, busW=4 BL=8 CL=12, tRRD=2 tCCD=6, tRCD=12 tRAS=28 tRP=12 tRC=40
n_cmd=86809 n_nop=48501 n_act=8236 n_pre=8220 n_req=10926 n_rd=21852 n_write=0 bw_util=0.5035
n_activity=78854 dram_eff=0.5542
bk0: 1348a 64452i bk1: 1344a 63454i bk2: 1344a 64181i bk3: 1344a 62492i bk4: 1364a 63192i bk5: 1368a 62154i bk6: 1408a 61395i bk7: 1408a 61199i bk8: 1408a 62488i bk9: 1408a 62070i bk10: 1368a 62464i bk11: 1364a 62932i bk12: 1344a 63265i bk13: 1344a 63456i bk14: 1344a 64436i bk15: 1344a 62189i 
dram_util_bins: 0 0 0 0 0 0 0 0 0 0
dram_eff_bins: 0 0 0 0 0 0 0 0 0 0
mrqq: max=16 avg=1.8912
Memory Partition 3: 
Cache L2_bank_006:
MSHR contents

Cache L2_bank_007:
MSHR contents

In Dram Latency Queue (total = 0): 
DRAM[3]: 16 bks, busW=4 BL=8 CL=12, tRRD=2 tCCD=6, tRCD=12 tRAS=28 tRP=12 tRC=40
n_cmd=86809 n_nop=48551 n_act=8212 n_pre=8196 n_req=10925 n_rd=21850 n_write=0 bw_util=0.5034
n_activity=79347 dram_eff=0.5507
bk0: 1346a 63740i bk1: 1344a 63494i bk2: 1344a 64460i bk3: 1344a 64109i bk4: 1364a 62903i bk5: 1368a 63338i bk6: 1408a 62283i bk7: 1408a 61119i bk8: 1408a 64077i bk9: 1408a 63745i bk10: 1368a 63731i bk11: 1364a 64122i bk12: 1344a 63031i bk13: 1344a 63868i bk14: 1344a 63448i bk15: 1344a 61731i 
dram_util_bins: 0 0 0 0 0 0 0 0 0 0
dram_eff_bins: 0 0 0 0 0 0 0 0 0 0
mrqq: max=16 avg=1.65549
Memory Partition 4: 
Cache L2_bank_008:
MSHR contents

Cache L2_bank_009:
MSHR contents

In Dram Latency Queue (total = 0): 
DRAM[4]: 16 bks, busW=4 BL=8 CL=12, tRRD=2 tCCD=6, tRCD=12 tRAS=28 tRP=12 tRC=40
n_cmd=86809 n_nop=48559 n_act=8202 n_pre=8186 n_req=10934 n_rd=21850 n_write=12 bw_util=0.5037
n_activity=79102 dram_eff=0.5528
bk0: 1344a 64552i bk1: 1344a 63777i bk2: 1344a 63207i bk3: 1344a 64784i bk4: 1364a 62402i bk5: 1368a 62563i bk6: 1408a 61925i bk7: 1408a 61976i bk8: 1408a 64038i bk9: 1408a 63936i bk10: 1370a 61762i bk11: 1364a 63228i bk12: 1344a 63606i bk13: 1344a 63285i bk14: 1344a 63324i bk15: 1344a 63507i 
dram_util_bins: 0 0 0 0 0 0 0 0 0 0
dram_eff_bins: 0 0 0 0 0 0 0 0 0 0
mrqq: max=16 avg=1.72836
Memory Partition 5: 
Cache L2_bank_010:
MSHR contents

Cache L2_bank_011:
MSHR contents

In Dram Latency Queue (total = 0): 
DRAM[5]: 16 bks, busW=4 BL=8 CL=12, tRRD=2 tCCD=6, tRCD=12 tRAS=28 tRP=12 tRC=40
n_cmd=86809 n_nop=48533 n_act=8220 n_pre=8204 n_req=10927 n_rd=21848 n_write=4 bw_util=0.5035
n_activity=78726 dram_eff=0.5551
bk0: 1344a 63070i bk1: 1344a 63975i bk2: 1344a 63671i bk3: 1344a 63974i bk4: 1364a 63556i bk5: 1368a 62573i bk6: 1408a 61849i bk7: 1408a 61902i bk8: 1408a 64055i bk9: 1408a 63564i bk10: 1368a 63422i bk11: 1364a 63194i bk12: 1344a 63405i bk13: 1344a 63331i bk14: 1344a 62678i bk15: 1344a 62704i 
dram_util_bins: 0 0 0 0 0 0 0 0 0 0
dram_eff_bins: 0 0 0 0 0 0 0 0 0 0
mrqq: max=16 avg=1.71489

========= L2 cache stats =========
L2_cache_bank[0]: Access = 5507, Miss = 5465, Miss_rate = 0.992, Pending_hits = 9, Reservation_fails = 1006
L2_cache_bank[1]: Access = 5524, Miss = 5462, Miss_rate = 0.989, Pending_hits = 1, Reservation_fails = 613
L2_cache_bank[2]: Access = 5492, Miss = 5464, Miss_rate = 0.995, Pending_hits = 6, Reservation_fails = 718
L2_cache_bank[3]: Access = 5524, Miss = 5462, Miss_rate = 0.989, Pending_hits = 1, Reservation_fails = 223
L2_cache_bank[4]: Access = 5492, Miss = 5464, Miss_rate = 0.995, Pending_hits = 0, Reservation_fails = 223
L2_cache_bank[5]: Access = 5462, Miss = 5462, Miss_rate = 1.000, Pending_hits = 0, Reservation_fails = 1262
L2_cache_bank[6]: Access = 5477, Miss = 5463, Miss_rate = 0.997, Pending_hits = 2, Reservation_fails = 204
L2_cache_bank[7]: Access = 5462, Miss = 5462, Miss_rate = 1.000, Pending_hits = 0, Reservation_fails = 385
L2_cache_bank[8]: Access = 5524, Miss = 5463, Miss_rate = 0.989, Pending_hits = 3, Reservation_fails = 637
L2_cache_bank[9]: Access = 5462, Miss = 5462, Miss_rate = 1.000, Pending_hits = 0, Reservation_fails = 340
L2_cache_bank[10]: Access = 5524, Miss = 5462, Miss_rate = 0.989, Pending_hits = 0, Reservation_fails = 240
L2_cache_bank[11]: Access = 5462, Miss = 5462, Miss_rate = 1.000, Pending_hits = 0, Reservation_fails = 503
L2_total_cache_accesses = 65912
L2_total_cache_misses = 65553
L2_total_cache_miss_rate = 0.9946
L2_total_cache_pending_hits = 22
L2_total_cache_reservation_fails = 6354
L2_total_cache_breakdown:
	L2_cache_stats_breakdown[GLOBAL_ACC_R][MISS] = 65536
	L2_cache_stats_breakdown[GLOBAL_ACC_R][RESERVATION_FAIL] = 5781
	L2_cache_stats_breakdown[CONST_ACC_R][HIT] = 11
	L2_cache_stats_breakdown[CONST_ACC_R][HIT_RESERVED] = 3
	L2_cache_stats_breakdown[CONST_ACC_R][MISS] = 1
	L2_cache_stats_breakdown[CONST_ACC_R][RESERVATION_FAIL] = 101
	L2_cache_stats_breakdown[GLOBAL_ACC_W][HIT] = 242
	L2_cache_stats_breakdown[GLOBAL_ACC_W][HIT_RESERVED] = 5
	L2_cache_stats_breakdown[GLOBAL_ACC_W][MISS] = 9
	L2_cache_stats_breakdown[INST_ACC_R][HIT] = 84
	L2_cache_stats_breakdown[INST_ACC_R][HIT_RESERVED] = 14
	L2_cache_stats_breakdown[INST_ACC_R][MISS] = 7
	L2_cache_stats_breakdown[INST_ACC_R][RESERVATION_FAIL] = 472
L2_cache_data_port_util = 0.001
L2_cache_fill_port_util = 0.332

icnt_total_pkts_mem_to_simt=328506
icnt_total_pkts_simt_to_mem=66168
LD_mem_lat_dist  0 0 0 0 0 0 0 0 0 0 0 0 0 0 0 0 0 0 0 0 0 0 0 0 0 0 0
ST_mem_lat_dist  0 0 0 0 0 0 0 0 0 0 0 0 0 0 0 0 0 0 0 0 0 0 0 0 0 0 0
----------------------------Interconnect-DETAILS--------------------------------
Class 0:
Packet latency average = 17.4884
	minimum = 6
	maximum = 128
Network latency average = 14.2589
	minimum = 6
	maximum = 117
Slowest packet = 14
Flit latency average = 14.0345
	minimum = 6
	maximum = 117
Slowest flit = 72221
Fragmentation average = 0
	minimum = 0
	maximum = 0
Injected packet rate average = 0.0742396
	minimum = 0.0626473 (at node 0)
	maximum = 0.083996 (at node 16)
Accepted packet rate average = 0.0742396
	minimum = 0.0626473 (at node 0)
	maximum = 0.083996 (at node 16)
Injected flit rate average = 0.22227
	minimum = 0.0628906 (at node 0)
	maximum = 0.418232 (at node 15)
Accepted flit rate average= 0.22227
	minimum = 0.0830533 (at node 20)
	maximum = 0.35119 (at node 1)
Injected packet length average = 2.99395
Accepted packet length average = 2.99395
Total in-flight flits = 0 (0 measured)
====== Overall Traffic Statistics ======
====== Traffic class 0 ======
Packet latency average = 17.4884 (1 samples)
	minimum = 6 (1 samples)
	maximum = 128 (1 samples)
Network latency average = 14.2589 (1 samples)
	minimum = 6 (1 samples)
	maximum = 117 (1 samples)
Flit latency average = 14.0345 (1 samples)
	minimum = 6 (1 samples)
	maximum = 117 (1 samples)
Fragmentation average = 0 (1 samples)
	minimum = 0 (1 samples)
	maximum = 0 (1 samples)
Injected packet rate average = 0.0742396 (1 samples)
	minimum = 0.0626473 (1 samples)
	maximum = 0.083996 (1 samples)
Accepted packet rate average = 0.0742396 (1 samples)
	minimum = 0.0626473 (1 samples)
	maximum = 0.083996 (1 samples)
Injected flit rate average = 0.22227 (1 samples)
	minimum = 0.0628906 (1 samples)
	maximum = 0.418232 (1 samples)
Accepted flit rate average = 0.22227 (1 samples)
	minimum = 0.0830533 (1 samples)
	maximum = 0.35119 (1 samples)
Injected packet size average = 2.99395 (1 samples)
Accepted packet size average = 2.99395 (1 samples)
Hops average = 1 (1 samples)
----------------------------END-of-Interconnect-DETAILS-------------------------


gpgpu_simulation_time = 0 days, 0 hrs, 1 min, 0 sec (60 sec)
gpgpu_simulation_rate = 407360 (inst/sec)
gpgpu_simulation_rate = 1096 (cycle/sec)
GPGPU-Sim API: Stream Manager State
GPGPU-Sim: detected inactive GPU simulation thread
GPU time: 57990.398438 msecs.
Reading back GPU result...
Checking GPU results...
..running CPU scalar product calculation
...comparing the results
L1 error: 3.070748E-08
TEST PASSED
Shutting down...
