

        *** GPGPU-Sim Simulator Version 3.2.2  [build 0] ***


GPGPU-Sim PTX: simulation mode 0 (can change with PTX_SIM_MODE_FUNC environment variable:
               1=functional simulation only, 0=detailed performance simulator)
GPGPU-Sim: Configuration options:

-network_mode                           1 # Interconnection network mode
-inter_config_file   config_fermi_islip.icnt # Interconnection network config file
-gpgpu_ptx_use_cuobjdump                    1 # Use cuobjdump to extract ptx and sass from binaries
-gpgpu_experimental_lib_support                    0 # Try to extract code from cuda libraries [Broken because of unknown cudaGetExportTable]
-gpgpu_ptx_convert_to_ptxplus                    0 # Convert SASS (native ISA) to ptxplus and run ptxplus
-gpgpu_ptx_force_max_capability                   20 # Force maximum compute capability
-gpgpu_ptx_inst_debug_to_file                    0 # Dump executed instructions' debug information to file
-gpgpu_ptx_inst_debug_file       inst_debug.txt # Executed instructions' debug output file
-gpgpu_ptx_inst_debug_thread_uid                    1 # Thread UID for executed instructions' debug output
-gpgpu_simd_model                       1 # 1 = post-dominator
-gpgpu_shader_core_pipeline              1536:32 # shader core pipeline config, i.e., {<nthread>:<warpsize>}
-gpgpu_tex_cache:l1  4:128:24,L:R:m:N:L,F:128:4,128:2 # per-shader L1 texture cache  (READ-ONLY) config  {<nsets>:<bsize>:<assoc>,<rep>:<wr>:<alloc>:<wr_alloc>,<mshr>:<N>:<merge>,<mq>:<rf>}
-gpgpu_const_cache:l1 64:64:2,L:R:f:N:L,A:2:32,4 # per-shader L1 constant memory cache  (READ-ONLY) config  {<nsets>:<bsize>:<assoc>,<rep>:<wr>:<alloc>:<wr_alloc>,<mshr>:<N>:<merge>,<mq>} 
-gpgpu_cache:il1     4:128:4,L:R:f:N:L,A:2:32,4 # shader L1 instruction cache config  {<nsets>:<bsize>:<assoc>,<rep>:<wr>:<alloc>:<wr_alloc>,<mshr>:<N>:<merge>,<mq>} 
-gpgpu_cache:dl1     32:128:4,L:L:m:N:H,A:32:8,8 # per-shader L1 data cache config  {<nsets>:<bsize>:<assoc>,<rep>:<wr>:<alloc>:<wr_alloc>,<mshr>:<N>:<merge>,<mq> | none}
-gpgpu_cache:dl1PrefL1                 none # per-shader L1 data cache config  {<nsets>:<bsize>:<assoc>,<rep>:<wr>:<alloc>:<wr_alloc>,<mshr>:<N>:<merge>,<mq> | none}
-gpgpu_cache:dl1PreShared                 none # per-shader L1 data cache config  {<nsets>:<bsize>:<assoc>,<rep>:<wr>:<alloc>:<wr_alloc>,<mshr>:<N>:<merge>,<mq> | none}
-gmem_skip_L1D                          0 # global memory access skip L1D cache (implements -Xptxas -dlcm=cg, default=no skip)
-gpgpu_perfect_mem                      0 # enable perfect memory mode (no cache miss)
-n_regfile_gating_group                    4 # group of lanes that should be read/written together)
-gpgpu_clock_gated_reg_file                    0 # enable clock gated reg file for power calculations
-gpgpu_clock_gated_lanes                    0 # enable clock gated lanes for power calculations
-gpgpu_shader_registers                32768 # Number of registers per shader core. Limits number of concurrent CTAs. (default 8192)
-gpgpu_shader_cta                       8 # Maximum number of concurrent CTAs in shader (default 8)
-gpgpu_num_cta_barriers                   16 # Maximum number of named barriers per CTA (default 16)
-gpgpu_n_clusters                      15 # number of processing clusters
-gpgpu_n_cores_per_cluster                    1 # number of simd cores per cluster
-gpgpu_n_cluster_ejection_buffer_size                    8 # number of packets in ejection buffer
-gpgpu_n_ldst_response_buffer_size                    2 # number of response packets in ld/st unit ejection buffer
-gpgpu_shmem_size                   16384 # Size of shared memory per shader core (default 16kB)
-gpgpu_shmem_size                   49152 # Size of shared memory per shader core (default 16kB)
-gpgpu_shmem_size_PrefL1                16384 # Size of shared memory per shader core (default 16kB)
-gpgpu_shmem_size_PrefShared                16384 # Size of shared memory per shader core (default 16kB)
-gpgpu_shmem_num_banks                   32 # Number of banks in the shared memory in each shader core (default 16)
-gpgpu_shmem_limited_broadcast                    0 # Limit shared memory to do one broadcast per cycle (default on)
-gpgpu_shmem_warp_parts                    1 # Number of portions a warp is divided into for shared memory bank conflict check 
-gpgpu_warpdistro_shader                   -1 # Specify which shader core to collect the warp size distribution from
-gpgpu_warp_issue_shader                    0 # Specify which shader core to collect the warp issue distribution from
-gpgpu_local_mem_map                    1 # Mapping from local memory space address to simulated GPU physical address space (default = enabled)
-gpgpu_num_reg_banks                   16 # Number of register banks (default = 8)
-gpgpu_reg_bank_use_warp_id                    0 # Use warp ID in mapping registers to banks (default = off)
-gpgpu_operand_collector_num_units_sp                    6 # number of collector units (default = 4)
-gpgpu_operand_collector_num_units_sfu                    8 # number of collector units (default = 4)
-gpgpu_operand_collector_num_units_mem                    2 # number of collector units (default = 2)
-gpgpu_operand_collector_num_units_gen                    0 # number of collector units (default = 0)
-gpgpu_operand_collector_num_in_ports_sp                    2 # number of collector unit in ports (default = 1)
-gpgpu_operand_collector_num_in_ports_sfu                    1 # number of collector unit in ports (default = 1)
-gpgpu_operand_collector_num_in_ports_mem                    1 # number of collector unit in ports (default = 1)
-gpgpu_operand_collector_num_in_ports_gen                    0 # number of collector unit in ports (default = 0)
-gpgpu_operand_collector_num_out_ports_sp                    2 # number of collector unit in ports (default = 1)
-gpgpu_operand_collector_num_out_ports_sfu                    1 # number of collector unit in ports (default = 1)
-gpgpu_operand_collector_num_out_ports_mem                    1 # number of collector unit in ports (default = 1)
-gpgpu_operand_collector_num_out_ports_gen                    0 # number of collector unit in ports (default = 0)
-gpgpu_coalesce_arch                   13 # Coalescing arch (default = 13, anything else is off for now)
-gpgpu_num_sched_per_core                    2 # Number of warp schedulers per core
-gpgpu_max_insn_issue_per_warp                    1 # Max number of instructions that can be issued per warp in one cycle by scheduler
-gpgpu_simt_core_sim_order                    1 # Select the simulation order of cores in a cluster (0=Fix, 1=Round-Robin)
-gpgpu_pipeline_widths        2,1,1,2,1,1,2 # Pipeline widths ID_OC_SP,ID_OC_SFU,ID_OC_MEM,OC_EX_SP,OC_EX_SFU,OC_EX_MEM,EX_WB
-gpgpu_num_sp_units                     2 # Number of SP units (default=1)
-gpgpu_num_sfu_units                    1 # Number of SF units (default=1)
-gpgpu_num_mem_units                    1 # Number if ldst units (default=1) WARNING: not hooked up to anything
-gpgpu_scheduler                      gto # Scheduler configuration: < lrr | gto | two_level_active > If two_level_active:<num_active_warps>:<inner_prioritization>:<outer_prioritization>For complete list of prioritization values see shader.h enum scheduler_prioritization_typeDefault: gto
-gpgpu_dram_scheduler                    1 # 0 = fifo, 1 = FR-FCFS (defaul)
-gpgpu_dram_partition_queues              8:8:8:8 # i2$:$2d:d2$:$2i
-l2_ideal                               0 # Use a ideal L2 cache that always hit
-gpgpu_cache:dl2     64:512:8,L:B:m:W:L,A:32:4,4:0,32 # unified banked L2 data cache config  {<nsets>:<bsize>:<assoc>,<rep>:<wr>:<alloc>:<wr_alloc>,<mshr>:<N>:<merge>,<mq>}
-gpgpu_cache:dl2_texture_only                    0 # L2 cache used for texture only
-gpgpu_n_mem                            6 # number of memory modules (e.g. memory controllers) in gpu
-gpgpu_n_sub_partition_per_mchannel                    2 # number of memory subpartition in each memory module
-gpgpu_n_mem_per_ctrlr                    2 # number of memory chips per memory controller
-gpgpu_memlatency_stat                   14 # track and display latency statistics 0x2 enables MC, 0x4 enables queue logs
-gpgpu_frfcfs_dram_sched_queue_size                   16 # 0 = unlimited (default); # entries per chip
-gpgpu_dram_return_queue_size                  116 # 0 = unlimited (default); # entries per chip
-gpgpu_dram_buswidth                    4 # default = 4 bytes (8 bytes per cycle at DDR)
-gpgpu_dram_burst_length                    8 # Burst length of each DRAM request (default = 4 data bus cycle)
-dram_data_command_freq_ratio                    4 # Frequency ratio between DRAM data bus and command bus (default = 2 times, i.e. DDR)
-gpgpu_dram_timing_opt nbk=16:CCD=2:RRD=6:RCD=12:RAS=28:RP=12:RC=40: CL=12:WL=4:CDLR=5:WR=12:nbkgrp=4:CCDL=3:RTPL=2 # DRAM timing parameters = {nbk:tCCD:tRRD:tRCD:tRAS:tRP:tRC:CL:WL:tCDLR:tWR:nbkgrp:tCCDL:tRTPL}
-rop_latency                          120 # ROP queue latency (default 85)
-dram_latency                         100 # DRAM latency (default 30)
-gpgpu_mem_addr_mapping dramid@8;00000000.00000000.00000000.00000000.0000RRRR.RRRRRRRR.BBBCCCCB.CCSSSSSS # mapping memory address to dram model {dramid@<start bit>;<memory address map>}
-gpgpu_mem_addr_test                    0 # run sweep test to check address mapping for aliased address
-gpgpu_mem_address_mask                    1 # 0 = old addressing mask, 1 = new addressing mask, 2 = new add. mask + flipped bank sel and chip sel bits
-gpuwattch_xml_file  gpuwattch_gtx480.xml # GPUWattch XML file
-power_simulation_enabled                    0 # Turn on power simulator (1=On, 0=Off)
-power_per_cycle_dump                    0 # Dump detailed power output each cycle
-power_trace_enabled                    0 # produce a file for the power trace (1=On, 0=Off)
-power_trace_zlevel                     6 # Compression level of the power trace output log (0=no comp, 9=highest)
-steady_power_levels_enabled                    0 # produce a file for the steady power levels (1=On, 0=Off)
-steady_state_definition                  8:4 # allowed deviation:number of samples
-gpgpu_max_cycle                        0 # terminates gpu simulation early (0 = no limit)
-gpgpu_max_insn                         0 # terminates gpu simulation early (0 = no limit)
-gpgpu_max_cta                          0 # terminates gpu simulation early (0 = no limit)
-gpgpu_runtime_stat                   500 # display runtime statistics such as dram utilization {<freq>:<flag>}
-liveness_message_freq                    1 # Minimum number of seconds between simulation liveness messages (0 = always print)
-gpgpu_flush_l1_cache                    0 # Flush L1 cache at the end of each kernel call
-gpgpu_flush_l2_cache                    0 # Flush L2 cache at the end of each kernel call
-gpgpu_deadlock_detect                    1 # Stop the simulation at deadlock (1=on (default), 0=off)
-gpgpu_ptx_instruction_classification                    0 # if enabled will classify ptx instruction types per kernel (Max 255 kernels now)
-gpgpu_ptx_sim_mode                     0 # Select between Performance (default) or Functional simulation (1)
-gpgpu_clock_domains 700.0:700.0:700.0:924.0 # Clock Domain Frequencies in MhZ {<Core Clock>:<ICNT Clock>:<L2 Clock>:<DRAM Clock>}
-gpgpu_max_concurrent_kernel                    8 # maximum kernels that can run concurrently on GPU
-gpgpu_cflog_interval                    0 # Interval between each snapshot in control flow logger
-visualizer_enabled                     0 # Turn on visualizer output (1=On, 0=Off)
-visualizer_outputfile                 NULL # Specifies the output log file for visualizer
-visualizer_zlevel                      6 # Compression level of the visualizer output log (0=no comp, 9=highest)
-trace_enabled                          0 # Turn on traces
-trace_components                    none # comma seperated list of traces to enable. Complete list found in trace_streams.tup. Default none
-trace_sampling_core                    0 # The core which is printed using CORE_DPRINTF. Default 0
-trace_sampling_memory_partition                   -1 # The memory partition which is printed using MEMPART_DPRINTF. Default -1 (i.e. all)
-enable_ptx_file_line_stats                    1 # Turn on PTX source line statistic profiling. (1 = On)
-ptx_line_stats_filename gpgpu_inst_stats.txt # Output file for PTX source line statistics.
-save_embedded_ptx                      0 # saves ptx files embedded in binary as <n>.ptx
-keep                                   0 # keep intermediate files created by GPGPU-Sim when interfacing with external programs
-gpgpu_ptx_save_converted_ptxplus                    0 # Saved converted ptxplus to a file
-ptx_opcode_latency_int         4,13,4,5,145 # Opcode latencies for integers <ADD,MAX,MUL,MAD,DIV>Default 1,1,19,25,145
-ptx_opcode_latency_fp          4,13,4,5,39 # Opcode latencies for single precision floating points <ADD,MAX,MUL,MAD,DIV>Default 1,1,1,1,30
-ptx_opcode_latency_dp         8,19,8,8,330 # Opcode latencies for double precision floating points <ADD,MAX,MUL,MAD,DIV>Default 8,8,8,8,335
-ptx_opcode_initiation_int            1,2,2,1,8 # Opcode initiation intervals for integers <ADD,MAX,MUL,MAD,DIV>Default 1,1,4,4,32
-ptx_opcode_initiation_fp            1,2,1,1,4 # Opcode initiation intervals for single precision floating points <ADD,MAX,MUL,MAD,DIV>Default 1,1,1,1,5
-ptx_opcode_initiation_dp         8,16,8,8,130 # Opcode initiation intervals for double precision floating points <ADD,MAX,MUL,MAD,DIV>Default 8,8,8,8,130
DRAM Timing Options:
nbk                                    16 # number of banks
CCD                                     2 # column to column delay
RRD                                     6 # minimal delay between activation of rows in different banks
RCD                                    12 # row to column delay
RAS                                    28 # time needed to activate row
RP                                     12 # time needed to precharge (deactivate) row
RC                                     40 # row cycle time
CDLR                                    5 # switching from write to read (changes tWTR)
WR                                     12 # last data-in to row precharge
CL                                     12 # CAS latency
WL                                      4 # Write latency
nbkgrp                                  4 # number of bank groups
CCDL                                    3 # column to column delay between accesses to different bank groups
RTPL                                    2 # read to precharge delay between accesses to different bank groups
Total number of memory sub partition = 12
addr_dec_mask[CHIP]  = 0000000000000000 	high:64 low:0
addr_dec_mask[BK]    = 000000000000e100 	high:16 low:8
addr_dec_mask[ROW]   = 000000000fff0000 	high:28 low:16
addr_dec_mask[COL]   = 0000000000001eff 	high:13 low:0
addr_dec_mask[BURST] = 000000000000003f 	high:6 low:0
sub_partition_id_mask = 0000000000000100
GPGPU-Sim uArch: clock freqs: 700000000.000000:700000000.000000:700000000.000000:924000000.000000
GPGPU-Sim uArch: clock periods: 0.00000000142857142857:0.00000000142857142857:0.00000000142857142857:0.00000000108225108225
*** Initializing Memory Statistics ***
GPGPU-Sim uArch: interconnect node map (shaderID+MemID to icntID)
GPGPU-Sim uArch: Memory nodes ID start from index: 15
GPGPU-Sim uArch:    0   1   2   3   4
GPGPU-Sim uArch:    5   6   7   8   9
GPGPU-Sim uArch:   10  11  12  13  14
GPGPU-Sim uArch:   15  16  17  18  19
GPGPU-Sim uArch:   20  21  22  23  24
GPGPU-Sim uArch:   25  26
GPGPU-Sim uArch: interconnect node reverse map (icntID to shaderID+MemID)
GPGPU-Sim uArch: Memory nodes start from ID: 15
GPGPU-Sim uArch:    0   1   2   3   4
GPGPU-Sim uArch:    5   6   7   8   9
GPGPU-Sim uArch:   10  11  12  13  14
GPGPU-Sim uArch:   15  16  17  18  19
GPGPU-Sim uArch:   20  21  22  23  24
GPGPU-Sim uArch:   25  26
c498d9f32ab5dd92351405d48e0f6df7  /sciclone/data20/adwait/applications/benchmarks/CUDA/BFS/gpgpu_ptx_sim__BFS
GPGPU-Sim uArch: performance model initialization complete.
GPGPU-Sim PTX: __cudaRegisterFatBinary, fat_cubin_handle = 1, filename=bfs.cu
self exe links to: /sciclone/data20/adwait/applications/benchmarks/CUDA/BFS/gpgpu_ptx_sim__BFS
Running md5sum using "md5sum /sciclone/data20/adwait/applications/benchmarks/CUDA/BFS/gpgpu_ptx_sim__BFS "
Parsing file _cuobjdump_complete_output_nt5xRV
######### cuobjdump parser ########
## Adding new section ELF
Adding arch: sm_20
Adding identifier: bfs.cu
## Adding new section PTX
Adding ptx filename: _cuobjdump_1.ptx
Adding arch: sm_20
Adding identifier: bfs.cu
Done parsing!!!
GPGPU-Sim PTX: __cudaRegisterFunction _Z6KernelP4NodePiPbS2_S1_S2_i : hostFun 0x0x405636, fat_cubin_handle = 1
GPGPU-Sim PTX: instruction assembly for function '_Z6KernelP4NodePiPbS2_S1_S2_i'...   done.
GPGPU-Sim PTX: finding reconvergence points for '_Z6KernelP4NodePiPbS2_S1_S2_i'...
GPGPU-Sim PTX: Finding dominators for '_Z6KernelP4NodePiPbS2_S1_S2_i'...
GPGPU-Sim PTX: Finding immediate dominators for '_Z6KernelP4NodePiPbS2_S1_S2_i'...
GPGPU-Sim PTX: Finding postdominators for '_Z6KernelP4NodePiPbS2_S1_S2_i'...
GPGPU-Sim PTX: Finding immediate postdominators for '_Z6KernelP4NodePiPbS2_S1_S2_i'...
GPGPU-Sim PTX: pre-decoding instructions for '_Z6KernelP4NodePiPbS2_S1_S2_i'...
GPGPU-Sim PTX: reconvergence points for _Z6KernelP4NodePiPbS2_S1_S2_i...
GPGPU-Sim PTX:  1 (potential) branch divergence @  PC=0x030 (_1.ptx:72) @%p1 bra $Lt_0_5122;
GPGPU-Sim PTX:    immediate post dominator      @  PC=0x1e8 (_1.ptx:141) exit;
GPGPU-Sim PTX:  2 (potential) branch divergence @  PC=0x068 (_1.ptx:79) @%p2 bra $Lt_0_5122;
GPGPU-Sim PTX:    immediate post dominator      @  PC=0x1e8 (_1.ptx:141) exit;
GPGPU-Sim PTX:  3 (potential) branch divergence @  PC=0x0e0 (_1.ptx:97) @%p3 bra $Lt_0_5122;
GPGPU-Sim PTX:    immediate post dominator      @  PC=0x1e8 (_1.ptx:141) exit;
GPGPU-Sim PTX:  4 (potential) branch divergence @  PC=0x138 (_1.ptx:111) @%p4 bra $Lt_0_4354;
GPGPU-Sim PTX:    immediate post dominator      @  PC=0x1c8 (_1.ptx:134) add.s32 %r11, %r11, 1;
GPGPU-Sim PTX:  5 (potential) branch divergence @  PC=0x1e0 (_1.ptx:137) @%p5 bra $Lt_0_4098;
GPGPU-Sim PTX:    immediate post dominator      @  PC=0x1e8 (_1.ptx:141) exit;
GPGPU-Sim PTX: ... end of reconvergence points for _Z6KernelP4NodePiPbS2_S1_S2_i
GPGPU-Sim PTX: ... done pre-decoding instructions for '_Z6KernelP4NodePiPbS2_S1_S2_i'.
GPGPU-Sim PTX: finished parsing EMBEDDED .ptx file _1.ptx
Adding _cuobjdump_1.ptx with cubin handle 1
GPGPU-Sim PTX: extracting embedded .ptx to temporary file "_ptx_sK7xY0"
Running: cat _ptx_sK7xY0 | sed 's/.version 1.5/.version 1.4/' | sed 's/, texmode_independent//' | sed 's/\(\.extern \.const\[1\] .b8 \w\+\)\[\]/\1\[1\]/' | sed 's/const\[.\]/const\[0\]/g' > _ptx2_N7ObP6
GPGPU-Sim PTX: generating ptxinfo using "$CUDA_INSTALL_PATH/bin/ptxas --gpu-name=sm_20 -v _ptx2_N7ObP6 --output-file  /dev/null 2> _ptx_sK7xY0info"
GPGPU-Sim PTX: Kernel '_Z6KernelP4NodePiPbS2_S1_S2_i' : regs=18, lmem=0, smem=0, cmem=84
GPGPU-Sim PTX: removing ptxinfo using "rm -f _ptx_sK7xY0 _ptx2_N7ObP6 _ptx_sK7xY0info"
GPGPU-Sim PTX: loading globals with explicit initializers... 
GPGPU-Sim PTX: finished loading globals (0 bytes total).
GPGPU-Sim PTX: loading constants with explicit initializers...  done.
Reading File
Input file: ./data/graph65536.txt
Read File
Copied Everything to GPU memory

GPGPU-Sim PTX: cudaLaunch for 0x0x405636 (mode=performance simulation) on stream 0
GPGPU-Sim PTX: pushing kernel '_Z6KernelP4NodePiPbS2_S1_S2_i' to stream 0, gridDim= (256,1,1) blockDim = (256,1,1) 
kernel '_Z6KernelP4NodePiPbS2_S1_S2_i' transfer to GPU hardware scheduler
GPGPU-Sim uArch: Shader 1 bind to kernel 1 '_Z6KernelP4NodePiPbS2_S1_S2_i'
GPGPU-Sim uArch: CTA/core = 6, limited by: threads regs
GPGPU-Sim uArch: core:  1, cta: 0 initialized @(1,0)
GPGPU-Sim uArch: Shader 2 bind to kernel 1 '_Z6KernelP4NodePiPbS2_S1_S2_i'
GPGPU-Sim uArch: core:  2, cta: 0 initialized @(1,0)
GPGPU-Sim uArch: Shader 3 bind to kernel 1 '_Z6KernelP4NodePiPbS2_S1_S2_i'
GPGPU-Sim uArch: core:  3, cta: 0 initialized @(1,0)
GPGPU-Sim uArch: Shader 4 bind to kernel 1 '_Z6KernelP4NodePiPbS2_S1_S2_i'
GPGPU-Sim uArch: core:  4, cta: 0 initialized @(1,0)
GPGPU-Sim uArch: Shader 5 bind to kernel 1 '_Z6KernelP4NodePiPbS2_S1_S2_i'
GPGPU-Sim uArch: core:  5, cta: 0 initialized @(1,0)
GPGPU-Sim uArch: Shader 6 bind to kernel 1 '_Z6KernelP4NodePiPbS2_S1_S2_i'
GPGPU-Sim uArch: core:  6, cta: 0 initialized @(1,0)
GPGPU-Sim uArch: Shader 7 bind to kernel 1 '_Z6KernelP4NodePiPbS2_S1_S2_i'
GPGPU-Sim uArch: core:  7, cta: 0 initialized @(1,0)
GPGPU-Sim uArch: Shader 8 bind to kernel 1 '_Z6KernelP4NodePiPbS2_S1_S2_i'
GPGPU-Sim uArch: core:  8, cta: 0 initialized @(1,0)
GPGPU-Sim uArch: Shader 9 bind to kernel 1 '_Z6KernelP4NodePiPbS2_S1_S2_i'
GPGPU-Sim uArch: core:  9, cta: 0 initialized @(1,0)
GPGPU-Sim uArch: Shader 10 bind to kernel 1 '_Z6KernelP4NodePiPbS2_S1_S2_i'
GPGPU-Sim uArch: core: 10, cta: 0 initialized @(1,0)
GPGPU-Sim uArch: Shader 11 bind to kernel 1 '_Z6KernelP4NodePiPbS2_S1_S2_i'
GPGPU-Sim uArch: core: 11, cta: 0 initialized @(1,0)
GPGPU-Sim uArch: Shader 12 bind to kernel 1 '_Z6KernelP4NodePiPbS2_S1_S2_i'
GPGPU-Sim uArch: core: 12, cta: 0 initialized @(1,0)
GPGPU-Sim uArch: Shader 13 bind to kernel 1 '_Z6KernelP4NodePiPbS2_S1_S2_i'
GPGPU-Sim uArch: core: 13, cta: 0 initialized @(1,0)
GPGPU-Sim uArch: Shader 14 bind to kernel 1 '_Z6KernelP4NodePiPbS2_S1_S2_i'
GPGPU-Sim uArch: core: 14, cta: 0 initialized @(1,0)
GPGPU-Sim uArch: Shader 0 bind to kernel 1 '_Z6KernelP4NodePiPbS2_S1_S2_i'
GPGPU-Sim uArch: core:  0, cta: 0 initialized @(1,0)
GPGPU-Sim uArch: core:  1, cta: 1 initialized @(2,0)
GPGPU-Sim uArch: core:  2, cta: 1 initialized @(2,0)
GPGPU-Sim uArch: core:  3, cta: 1 initialized @(2,0)
GPGPU-Sim uArch: core:  4, cta: 1 initialized @(2,0)
GPGPU-Sim uArch: core:  5, cta: 1 initialized @(2,0)
GPGPU-Sim uArch: core:  6, cta: 1 initialized @(2,0)
GPGPU-Sim uArch: core:  7, cta: 1 initialized @(2,0)
GPGPU-Sim uArch: core:  8, cta: 1 initialized @(2,0)
GPGPU-Sim uArch: core:  9, cta: 1 initialized @(2,0)
GPGPU-Sim uArch: core: 10, cta: 1 initialized @(2,0)
GPGPU-Sim uArch: core: 11, cta: 1 initialized @(2,0)
GPGPU-Sim uArch: core: 12, cta: 1 initialized @(2,0)
GPGPU-Sim uArch: core: 13, cta: 1 initialized @(2,0)
GPGPU-Sim uArch: core: 14, cta: 1 initialized @(2,0)
GPGPU-Sim uArch: core:  0, cta: 1 initialized @(2,0)
GPGPU-Sim uArch: core:  1, cta: 2 initialized @(3,0)
GPGPU-Sim uArch: core:  2, cta: 2 initialized @(3,0)
GPGPU-Sim uArch: core:  3, cta: 2 initialized @(3,0)
GPGPU-Sim uArch: core:  4, cta: 2 initialized @(3,0)
GPGPU-Sim uArch: core:  5, cta: 2 initialized @(3,0)
GPGPU-Sim uArch: core:  6, cta: 2 initialized @(3,0)
GPGPU-Sim uArch: core:  7, cta: 2 initialized @(3,0)
GPGPU-Sim uArch: core:  8, cta: 2 initialized @(3,0)
GPGPU-Sim uArch: core:  9, cta: 2 initialized @(3,0)
GPGPU-Sim uArch: core: 10, cta: 2 initialized @(3,0)
GPGPU-Sim uArch: core: 11, cta: 2 initialized @(3,0)
GPGPU-Sim uArch: core: 12, cta: 2 initialized @(3,0)
GPGPU-Sim uArch: core: 13, cta: 2 initialized @(3,0)
GPGPU-Sim uArch: core: 14, cta: 2 initialized @(3,0)
GPGPU-Sim uArch: core:  0, cta: 2 initialized @(3,0)
GPGPU-Sim uArch: core:  1, cta: 3 initialized @(4,0)
GPGPU-Sim uArch: core:  2, cta: 3 initialized @(4,0)
GPGPU-Sim uArch: core:  3, cta: 3 initialized @(4,0)
GPGPU-Sim uArch: core:  4, cta: 3 initialized @(4,0)
GPGPU-Sim uArch: core:  5, cta: 3 initialized @(4,0)
GPGPU-Sim uArch: core:  6, cta: 3 initialized @(4,0)
GPGPU-Sim uArch: core:  7, cta: 3 initialized @(4,0)
GPGPU-Sim uArch: core:  8, cta: 3 initialized @(4,0)
GPGPU-Sim uArch: core:  9, cta: 3 initialized @(4,0)
GPGPU-Sim uArch: core: 10, cta: 3 initialized @(4,0)
GPGPU-Sim uArch: core: 11, cta: 3 initialized @(4,0)
GPGPU-Sim uArch: core: 12, cta: 3 initialized @(4,0)
GPGPU-Sim uArch: core: 13, cta: 3 initialized @(4,0)
GPGPU-Sim uArch: core: 14, cta: 3 initialized @(4,0)
GPGPU-Sim uArch: core:  0, cta: 3 initialized @(4,0)
GPGPU-Sim uArch: core:  1, cta: 4 initialized @(5,0)
GPGPU-Sim uArch: core:  2, cta: 4 initialized @(5,0)
GPGPU-Sim uArch: core:  3, cta: 4 initialized @(5,0)
GPGPU-Sim uArch: core:  4, cta: 4 initialized @(5,0)
GPGPU-Sim uArch: core:  5, cta: 4 initialized @(5,0)
GPGPU-Sim uArch: core:  6, cta: 4 initialized @(5,0)
GPGPU-Sim uArch: core:  7, cta: 4 initialized @(5,0)
GPGPU-Sim uArch: core:  8, cta: 4 initialized @(5,0)
GPGPU-Sim uArch: core:  9, cta: 4 initialized @(5,0)
GPGPU-Sim uArch: core: 10, cta: 4 initialized @(5,0)
GPGPU-Sim uArch: core: 11, cta: 4 initialized @(5,0)
GPGPU-Sim uArch: core: 12, cta: 4 initialized @(5,0)
GPGPU-Sim uArch: core: 13, cta: 4 initialized @(5,0)
GPGPU-Sim uArch: core: 14, cta: 4 initialized @(5,0)
GPGPU-Sim uArch: core:  0, cta: 4 initialized @(5,0)
GPGPU-Sim uArch: core:  1, cta: 5 initialized @(6,0)
GPGPU-Sim uArch: core:  2, cta: 5 initialized @(6,0)
GPGPU-Sim uArch: core:  3, cta: 5 initialized @(6,0)
GPGPU-Sim uArch: core:  4, cta: 5 initialized @(6,0)
GPGPU-Sim uArch: core:  5, cta: 5 initialized @(6,0)
GPGPU-Sim uArch: core:  6, cta: 5 initialized @(6,0)
GPGPU-Sim uArch: core:  7, cta: 5 initialized @(6,0)
GPGPU-Sim uArch: core:  8, cta: 5 initialized @(6,0)
GPGPU-Sim uArch: core:  9, cta: 5 initialized @(6,0)
GPGPU-Sim uArch: core: 10, cta: 5 initialized @(6,0)
GPGPU-Sim uArch: core: 11, cta: 5 initialized @(6,0)
GPGPU-Sim uArch: core: 12, cta: 5 initialized @(6,0)
GPGPU-Sim uArch: core: 13, cta: 5 initialized @(6,0)
GPGPU-Sim uArch: core: 14, cta: 5 initialized @(6,0)
GPGPU-Sim uArch: core:  0, cta: 5 initialized @(6,0)
GPGPU-Sim PTX: 100000 instructions simulated : ctaid=(68,0,0) tid=(63,0,0)
GPGPU-Sim uArch: cycles simulated: 500  inst.: 91648 (ipc=183.3) sim_rate=45824 (inst/sec) elapsed = 0:0:00:02 / Sun Feb 28 21:36:38 2016
GPGPU-Sim PTX: 200000 instructions simulated : ctaid=(53,0,0) tid=(95,0,0)
GPGPU-Sim PTX: 300000 instructions simulated : ctaid=(80,0,0) tid=(189,0,0)
GPGPU-Sim uArch: Shader 1 finished CTA #1 (1310,0), 5 CTAs running
GPGPU-Sim uArch: core:  1, cta: 1 initialized @(1311,0)
GPGPU-Sim uArch: Shader 2 finished CTA #3 (1311,0), 5 CTAs running
GPGPU-Sim uArch: core:  2, cta: 3 initialized @(1312,0)
GPGPU-Sim uArch: Shader 1 finished CTA #3 (1317,0), 5 CTAs running
GPGPU-Sim uArch: Shader 1 finished CTA #4 (1317,0), 4 CTAs running
GPGPU-Sim uArch: core:  1, cta: 3 initialized @(1318,0)
GPGPU-Sim uArch: core:  1, cta: 4 initialized @(1319,0)
GPGPU-Sim uArch: Shader 2 finished CTA #0 (1319,0), 5 CTAs running
GPGPU-Sim uArch: Shader 2 finished CTA #1 (1319,0), 4 CTAs running
GPGPU-Sim uArch: core:  2, cta: 0 initialized @(1320,0)
GPGPU-Sim uArch: core:  2, cta: 1 initialized @(1321,0)
GPGPU-Sim uArch: Shader 5 finished CTA #0 (1326,0), 5 CTAs running
GPGPU-Sim uArch: Shader 5 finished CTA #1 (1326,0), 4 CTAs running
GPGPU-Sim uArch: Shader 5 finished CTA #2 (1326,0), 3 CTAs running
GPGPU-Sim uArch: core:  5, cta: 0 initialized @(1327,0)
GPGPU-Sim uArch: core:  5, cta: 1 initialized @(1328,0)
GPGPU-Sim uArch: Shader 0 finished CTA #0 (1328,0), 5 CTAs running
GPGPU-Sim uArch: Shader 0 finished CTA #1 (1328,0), 4 CTAs running
GPGPU-Sim uArch: Shader 0 finished CTA #2 (1328,0), 3 CTAs running
GPGPU-Sim uArch: Shader 0 finished CTA #3 (1328,0), 2 CTAs running
GPGPU-Sim uArch: Shader 1 finished CTA #2 (1328,0), 5 CTAs running
GPGPU-Sim uArch: core:  0, cta: 0 initialized @(1329,0)
GPGPU-Sim uArch: core:  1, cta: 2 initialized @(1329,0)
GPGPU-Sim uArch: core:  5, cta: 2 initialized @(1329,0)
GPGPU-Sim uArch: core:  0, cta: 1 initialized @(1330,0)
GPGPU-Sim uArch: core:  0, cta: 2 initialized @(1331,0)
GPGPU-Sim uArch: core:  0, cta: 3 initialized @(1332,0)
GPGPU-Sim uArch: Shader 2 finished CTA #4 (1335,0), 5 CTAs running
GPGPU-Sim uArch: Shader 2 finished CTA #5 (1335,0), 4 CTAs running
GPGPU-Sim uArch: core:  2, cta: 4 initialized @(1336,0)
GPGPU-Sim uArch: Shader 4 finished CTA #0 (1336,0), 5 CTAs running
GPGPU-Sim uArch: Shader 4 finished CTA #1 (1336,0), 4 CTAs running
GPGPU-Sim uArch: Shader 4 finished CTA #2 (1336,0), 3 CTAs running
GPGPU-Sim uArch: Shader 4 finished CTA #3 (1336,0), 2 CTAs running
GPGPU-Sim uArch: core:  4, cta: 0 initialized @(1337,0)
GPGPU-Sim uArch: core:  2, cta: 5 initialized @(1337,0)
GPGPU-Sim uArch: core:  4, cta: 1 initialized @(1338,0)
GPGPU-Sim uArch: core:  4, cta: 2 initialized @(1339,0)
GPGPU-Sim uArch: core:  4, cta: 3 initialized @(1340,0)
GPGPU-Sim uArch: Shader 1 finished CTA #5 (1344,0), 5 CTAs running
GPGPU-Sim uArch: core:  1, cta: 5 initialized @(1345,0)
GPGPU-Sim uArch: Shader 9 finished CTA #4 (1346,0), 5 CTAs running
GPGPU-Sim uArch: Shader 9 finished CTA #5 (1346,0), 4 CTAs running
GPGPU-Sim uArch: Shader 9 finished CTA #0 (1346,0), 3 CTAs running
GPGPU-Sim uArch: Shader 9 finished CTA #1 (1346,0), 2 CTAs running
GPGPU-Sim uArch: core:  9, cta: 0 initialized @(1347,0)
GPGPU-Sim uArch: core:  9, cta: 1 initialized @(1348,0)
GPGPU-Sim uArch: core:  9, cta: 4 initialized @(1349,0)
GPGPU-Sim uArch: core:  9, cta: 5 initialized @(1350,0)
GPGPU-Sim uArch: Shader 2 finished CTA #2 (1351,0), 5 CTAs running
GPGPU-Sim uArch: core:  2, cta: 2 initialized @(1352,0)
GPGPU-Sim uArch: Shader 6 finished CTA #5 (1353,0), 5 CTAs running
GPGPU-Sim uArch: Shader 6 finished CTA #0 (1353,0), 4 CTAs running
GPGPU-Sim uArch: Shader 6 finished CTA #1 (1353,0), 3 CTAs running
GPGPU-Sim uArch: Shader 6 finished CTA #2 (1353,0), 2 CTAs running
GPGPU-Sim uArch: core:  6, cta: 0 initialized @(1354,0)
GPGPU-Sim uArch: core:  6, cta: 1 initialized @(1355,0)
GPGPU-Sim uArch: core:  6, cta: 2 initialized @(1356,0)
GPGPU-Sim uArch: core:  6, cta: 5 initialized @(1357,0)
GPGPU-Sim uArch: Shader 13 finished CTA #3 (1357,0), 5 CTAs running
GPGPU-Sim uArch: Shader 13 finished CTA #4 (1357,0), 4 CTAs running
GPGPU-Sim uArch: core: 13, cta: 3 initialized @(1358,0)
GPGPU-Sim uArch: core: 13, cta: 4 initialized @(1359,0)
GPGPU-Sim uArch: Shader 14 finished CTA #0 (1360,0), 5 CTAs running
GPGPU-Sim uArch: core: 14, cta: 0 initialized @(1361,0)
GPGPU-Sim uArch: Shader 7 finished CTA #5 (1361,0), 5 CTAs running
GPGPU-Sim uArch: Shader 7 finished CTA #0 (1361,0), 4 CTAs running
GPGPU-Sim uArch: Shader 7 finished CTA #1 (1361,0), 3 CTAs running
GPGPU-Sim uArch: Shader 7 finished CTA #2 (1361,0), 2 CTAs running
GPGPU-Sim uArch: core:  7, cta: 0 initialized @(1362,0)
GPGPU-Sim uArch: core:  7, cta: 1 initialized @(1363,0)
GPGPU-Sim uArch: Shader 5 finished CTA #3 (1363,0), 5 CTAs running
GPGPU-Sim uArch: Shader 5 finished CTA #4 (1363,0), 4 CTAs running
GPGPU-Sim uArch: Shader 5 finished CTA #5 (1363,0), 3 CTAs running
GPGPU-Sim uArch: core:  5, cta: 3 initialized @(1364,0)
GPGPU-Sim uArch: core:  7, cta: 2 initialized @(1364,0)
GPGPU-Sim uArch: core:  5, cta: 4 initialized @(1365,0)
GPGPU-Sim uArch: core:  7, cta: 5 initialized @(1365,0)
GPGPU-Sim uArch: Shader 0 finished CTA #4 (1365,0), 5 CTAs running
GPGPU-Sim uArch: Shader 0 finished CTA #5 (1365,0), 4 CTAs running
GPGPU-Sim uArch: Shader 13 finished CTA #0 (1365,0), 5 CTAs running
GPGPU-Sim uArch: Shader 13 finished CTA #1 (1365,0), 4 CTAs running
GPGPU-Sim uArch: core: 13, cta: 0 initialized @(1366,0)
GPGPU-Sim uArch: core:  0, cta: 4 initialized @(1366,0)
GPGPU-Sim uArch: core:  5, cta: 5 initialized @(1366,0)
GPGPU-Sim uArch: core: 13, cta: 1 initialized @(1367,0)
GPGPU-Sim uArch: core:  0, cta: 5 initialized @(1367,0)
GPGPU-Sim uArch: Shader 11 finished CTA #4 (1367,0), 5 CTAs running
GPGPU-Sim uArch: Shader 11 finished CTA #0 (1367,0), 4 CTAs running
GPGPU-Sim uArch: Shader 11 finished CTA #1 (1367,0), 3 CTAs running
GPGPU-Sim uArch: core: 11, cta: 0 initialized @(1368,0)
GPGPU-Sim uArch: Shader 14 finished CTA #3 (1368,0), 5 CTAs running
GPGPU-Sim uArch: Shader 14 finished CTA #4 (1368,0), 4 CTAs running
GPGPU-Sim uArch: core: 14, cta: 3 initialized @(1369,0)
GPGPU-Sim uArch: core: 11, cta: 1 initialized @(1369,0)
GPGPU-Sim uArch: core: 14, cta: 4 initialized @(1370,0)
GPGPU-Sim uArch: core: 11, cta: 4 initialized @(1370,0)
GPGPU-Sim uArch: Shader 4 finished CTA #4 (1377,0), 5 CTAs running
GPGPU-Sim uArch: Shader 4 finished CTA #5 (1377,0), 4 CTAs running
GPGPU-Sim uArch: core:  4, cta: 4 initialized @(1378,0)
GPGPU-Sim uArch: Shader 12 finished CTA #0 (1378,0), 5 CTAs running
GPGPU-Sim uArch: Shader 12 finished CTA #1 (1378,0), 4 CTAs running
GPGPU-Sim uArch: core: 12, cta: 0 initialized @(1379,0)
GPGPU-Sim uArch: core:  4, cta: 5 initialized @(1379,0)
GPGPU-Sim uArch: core: 12, cta: 1 initialized @(1380,0)
GPGPU-Sim uArch: Shader 10 finished CTA #4 (1381,0), 5 CTAs running
GPGPU-Sim uArch: Shader 10 finished CTA #0 (1381,0), 4 CTAs running
GPGPU-Sim uArch: Shader 10 finished CTA #1 (1381,0), 3 CTAs running
GPGPU-Sim uArch: core: 10, cta: 0 initialized @(1382,0)
GPGPU-Sim uArch: core: 10, cta: 1 initialized @(1383,0)
GPGPU-Sim uArch: Shader 9 finished CTA #2 (1383,0), 5 CTAs running
GPGPU-Sim uArch: Shader 9 finished CTA #3 (1383,0), 4 CTAs running
GPGPU-Sim uArch: Shader 14 finished CTA #1 (1383,0), 5 CTAs running
GPGPU-Sim uArch: Shader 14 finished CTA #2 (1383,0), 4 CTAs running
GPGPU-Sim uArch: core: 14, cta: 1 initialized @(1384,0)
GPGPU-Sim uArch: core:  9, cta: 2 initialized @(1384,0)
GPGPU-Sim uArch: core: 10, cta: 4 initialized @(1384,0)
GPGPU-Sim uArch: core: 14, cta: 2 initialized @(1385,0)
GPGPU-Sim uArch: core:  9, cta: 3 initialized @(1385,0)
GPGPU-Sim uArch: Shader 13 finished CTA #5 (1385,0), 5 CTAs running
GPGPU-Sim uArch: core: 13, cta: 5 initialized @(1386,0)
GPGPU-Sim uArch: Shader 12 finished CTA #3 (1386,0), 5 CTAs running
GPGPU-Sim uArch: Shader 12 finished CTA #4 (1386,0), 4 CTAs running
GPGPU-Sim uArch: core: 12, cta: 3 initialized @(1387,0)
GPGPU-Sim uArch: Shader 7 finished CTA #3 (1387,0), 5 CTAs running
GPGPU-Sim uArch: Shader 7 finished CTA #4 (1387,0), 4 CTAs running
GPGPU-Sim uArch: core:  7, cta: 3 initialized @(1388,0)
GPGPU-Sim uArch: core: 12, cta: 4 initialized @(1388,0)
GPGPU-Sim uArch: core:  7, cta: 4 initialized @(1389,0)
GPGPU-Sim uArch: Shader 6 finished CTA #3 (1389,0), 5 CTAs running
GPGPU-Sim uArch: Shader 6 finished CTA #4 (1389,0), 4 CTAs running
GPGPU-Sim uArch: Shader 11 finished CTA #5 (1389,0), 5 CTAs running
GPGPU-Sim uArch: core: 11, cta: 5 initialized @(1390,0)
GPGPU-Sim uArch: core:  6, cta: 3 initialized @(1390,0)
GPGPU-Sim uArch: core:  6, cta: 4 initialized @(1391,0)
GPGPU-Sim uArch: Shader 8 finished CTA #0 (1392,0), 5 CTAs running
GPGPU-Sim uArch: Shader 8 finished CTA #1 (1392,0), 4 CTAs running
GPGPU-Sim uArch: Shader 8 finished CTA #2 (1392,0), 3 CTAs running
GPGPU-Sim uArch: core:  8, cta: 0 initialized @(1393,0)
GPGPU-Sim uArch: core:  8, cta: 1 initialized @(1394,0)
GPGPU-Sim uArch: core:  8, cta: 2 initialized @(1395,0)
GPGPU-Sim uArch: Shader 3 finished CTA #0 (1398,0), 5 CTAs running
GPGPU-Sim uArch: Shader 3 finished CTA #1 (1398,0), 4 CTAs running
GPGPU-Sim uArch: Shader 3 finished CTA #2 (1398,0), 3 CTAs running
GPGPU-Sim uArch: Shader 3 finished CTA #3 (1398,0), 2 CTAs running
GPGPU-Sim uArch: core:  3, cta: 0 initialized @(1399,0)
GPGPU-Sim uArch: Shader 14 finished CTA #5 (1399,0), 5 CTAs running
GPGPU-Sim uArch: core: 14, cta: 5 initialized @(1400,0)
GPGPU-Sim uArch: core:  3, cta: 1 initialized @(1400,0)
GPGPU-Sim uArch: core:  3, cta: 2 initialized @(1401,0)
GPGPU-Sim uArch: Shader 10 finished CTA #5 (1401,0), 5 CTAs running
GPGPU-Sim uArch: Shader 13 finished CTA #2 (1401,0), 5 CTAs running
GPGPU-Sim uArch: core: 10, cta: 5 initialized @(1402,0)
GPGPU-Sim uArch: core: 13, cta: 2 initialized @(1402,0)
GPGPU-Sim uArch: core:  3, cta: 3 initialized @(1402,0)
GPGPU-Sim uArch: Shader 12 finished CTA #2 (1403,0), 5 CTAs running
GPGPU-Sim uArch: core: 12, cta: 2 initialized @(1404,0)
GPGPU-Sim uArch: Shader 8 finished CTA #5 (1405,0), 5 CTAs running
GPGPU-Sim uArch: Shader 11 finished CTA #2 (1405,0), 5 CTAs running
GPGPU-Sim uArch: Shader 11 finished CTA #3 (1405,0), 4 CTAs running
GPGPU-Sim uArch: core:  8, cta: 5 initialized @(1406,0)
GPGPU-Sim uArch: core: 11, cta: 2 initialized @(1406,0)
GPGPU-Sim uArch: core: 11, cta: 3 initialized @(1407,0)
GPGPU-Sim uArch: Shader 10 finished CTA #2 (1417,0), 5 CTAs running
GPGPU-Sim uArch: Shader 10 finished CTA #3 (1417,0), 4 CTAs running
GPGPU-Sim uArch: core: 10, cta: 2 initialized @(1418,0)
GPGPU-Sim uArch: core: 10, cta: 3 initialized @(1419,0)
GPGPU-Sim uArch: Shader 12 finished CTA #5 (1419,0), 5 CTAs running
GPGPU-Sim uArch: core: 12, cta: 5 initialized @(1420,0)
GPGPU-Sim uArch: Shader 8 finished CTA #3 (1429,0), 5 CTAs running
GPGPU-Sim uArch: Shader 8 finished CTA #4 (1429,0), 4 CTAs running
GPGPU-Sim PTX: 400000 instructions simulated : ctaid=(140,0,0) tid=(85,0,0)
GPGPU-Sim uArch: core:  8, cta: 3 initialized @(1430,0)
GPGPU-Sim uArch: core:  8, cta: 4 initialized @(1431,0)
GPGPU-Sim uArch: Shader 3 finished CTA #4 (1431,0), 5 CTAs running
GPGPU-Sim uArch: Shader 3 finished CTA #5 (1431,0), 4 CTAs running
GPGPU-Sim uArch: core:  3, cta: 4 initialized @(1432,0)
GPGPU-Sim uArch: core:  3, cta: 5 initialized @(1433,0)
GPGPU-Sim uArch: cycles simulated: 1500  inst.: 428299 (ipc=285.5) sim_rate=142766 (inst/sec) elapsed = 0:0:00:03 / Sun Feb 28 21:36:39 2016
GPGPU-Sim PTX: 500000 instructions simulated : ctaid=(118,0,0) tid=(241,0,0)
GPGPU-Sim PTX: 600000 instructions simulated : ctaid=(152,0,0) tid=(141,0,0)
GPGPU-Sim uArch: Shader 1 finished CTA #1 (1800,0), 5 CTAs running
GPGPU-Sim uArch: core:  1, cta: 1 initialized @(1801,0)
GPGPU-Sim uArch: Shader 1 finished CTA #3 (1822,0), 5 CTAs running
GPGPU-Sim uArch: core:  1, cta: 3 initialized @(1823,0)
GPGPU-Sim uArch: Shader 0 finished CTA #0 (1829,0), 5 CTAs running
GPGPU-Sim uArch: core:  0, cta: 0 initialized @(1830,0)
GPGPU-Sim uArch: Shader 2 finished CTA #3 (1835,0), 5 CTAs running
GPGPU-Sim uArch: Shader 5 finished CTA #0 (1835,0), 5 CTAs running
GPGPU-Sim uArch: core:  2, cta: 3 initialized @(1836,0)
GPGPU-Sim uArch: core:  5, cta: 0 initialized @(1836,0)
GPGPU-Sim uArch: Shader 1 finished CTA #4 (1845,0), 5 CTAs running
GPGPU-Sim uArch: Shader 4 finished CTA #0 (1845,0), 5 CTAs running
GPGPU-Sim uArch: core:  1, cta: 4 initialized @(1846,0)
GPGPU-Sim uArch: core:  4, cta: 0 initialized @(1846,0)
GPGPU-Sim uArch: Shader 6 finished CTA #0 (1857,0), 5 CTAs running
GPGPU-Sim uArch: core:  6, cta: 0 initialized @(1858,0)
GPGPU-Sim uArch: Shader 5 finished CTA #1 (1863,0), 5 CTAs running
GPGPU-Sim uArch: core:  5, cta: 1 initialized @(1864,0)
GPGPU-Sim uArch: Shader 9 finished CTA #4 (1881,0), 5 CTAs running
GPGPU-Sim uArch: Shader 13 finished CTA #3 (1881,0), 5 CTAs running
GPGPU-Sim uArch: core:  9, cta: 4 initialized @(1882,0)
GPGPU-Sim uArch: core: 13, cta: 3 initialized @(1882,0)
GPGPU-Sim uArch: Shader 2 finished CTA #0 (1882,0), 5 CTAs running
GPGPU-Sim uArch: core:  2, cta: 0 initialized @(1883,0)
GPGPU-Sim uArch: Shader 9 finished CTA #0 (1893,0), 5 CTAs running
GPGPU-Sim uArch: core:  9, cta: 0 initialized @(1894,0)
GPGPU-Sim uArch: Shader 4 finished CTA #1 (1895,0), 5 CTAs running
GPGPU-Sim uArch: Shader 4 finished CTA #2 (1895,0), 4 CTAs running
GPGPU-Sim uArch: Shader 13 finished CTA #4 (1895,0), 5 CTAs running
GPGPU-Sim uArch: core: 13, cta: 4 initialized @(1896,0)
GPGPU-Sim uArch: core:  4, cta: 1 initialized @(1896,0)
GPGPU-Sim uArch: core:  4, cta: 2 initialized @(1897,0)
GPGPU-Sim uArch: Shader 14 finished CTA #0 (1901,0), 5 CTAs running
GPGPU-Sim uArch: core: 14, cta: 0 initialized @(1902,0)
GPGPU-Sim uArch: Shader 11 finished CTA #4 (1903,0), 5 CTAs running
GPGPU-Sim uArch: core: 11, cta: 4 initialized @(1904,0)
GPGPU-Sim uArch: Shader 7 finished CTA #0 (1910,0), 5 CTAs running
GPGPU-Sim uArch: core:  7, cta: 0 initialized @(1911,0)
GPGPU-Sim uArch: Shader 3 finished CTA #0 (1918,0), 5 CTAs running
GPGPU-Sim uArch: core:  3, cta: 0 initialized @(1919,0)
GPGPU-Sim uArch: Shader 6 finished CTA #1 (1922,0), 5 CTAs running
GPGPU-Sim uArch: Shader 6 finished CTA #2 (1922,0), 4 CTAs running
GPGPU-Sim uArch: Shader 6 finished CTA #5 (1922,0), 3 CTAs running
GPGPU-Sim uArch: core:  6, cta: 1 initialized @(1923,0)
GPGPU-Sim uArch: Shader 4 finished CTA #3 (1923,0), 5 CTAs running
GPGPU-Sim uArch: core:  4, cta: 3 initialized @(1924,0)
GPGPU-Sim uArch: core:  6, cta: 2 initialized @(1924,0)
GPGPU-Sim uArch: core:  6, cta: 5 initialized @(1925,0)
GPGPU-Sim uArch: Shader 0 finished CTA #3 (1935,0), 5 CTAs running
GPGPU-Sim uArch: Shader 1 finished CTA #2 (1935,0), 5 CTAs running
GPGPU-Sim uArch: Shader 5 finished CTA #2 (1935,0), 5 CTAs running
GPGPU-Sim uArch: core:  0, cta: 3 initialized @(1936,0)
GPGPU-Sim uArch: core:  1, cta: 2 initialized @(1936,0)
GPGPU-Sim uArch: core:  5, cta: 2 initialized @(1936,0)
GPGPU-Sim uArch: Shader 3 finished CTA #1 (1942,0), 5 CTAs running
GPGPU-Sim uArch: core:  3, cta: 1 initialized @(1943,0)
GPGPU-Sim uArch: Shader 0 finished CTA #2 (1947,0), 5 CTAs running
GPGPU-Sim uArch: Shader 2 finished CTA #4 (1947,0), 5 CTAs running
GPGPU-Sim uArch: core:  0, cta: 2 initialized @(1948,0)
GPGPU-Sim uArch: core:  2, cta: 4 initialized @(1948,0)
GPGPU-Sim uArch: Shader 0 finished CTA #1 (1955,0), 5 CTAs running
GPGPU-Sim uArch: core:  0, cta: 1 initialized @(1956,0)
GPGPU-Sim uArch: Shader 2 finished CTA #1 (1956,0), 5 CTAs running
GPGPU-Sim uArch: core:  2, cta: 1 initialized @(1957,0)
GPGPU-Sim uArch: Shader 13 finished CTA #0 (1959,0), 5 CTAs running
GPGPU-Sim uArch: core: 13, cta: 0 initialized @(1960,0)
GPGPU-Sim uArch: Shader 12 finished CTA #4 (1967,0), 5 CTAs running
GPGPU-Sim uArch: core: 12, cta: 4 initialized @(1968,0)
GPGPU-Sim PTX: 700000 instructions simulated : ctaid=(203,0,0) tid=(139,0,0)
GPGPU-Sim uArch: Shader 9 finished CTA #1 (1977,0), 5 CTAs running
GPGPU-Sim uArch: core:  9, cta: 1 initialized @(1978,0)
GPGPU-Sim uArch: Shader 2 finished CTA #5 (1979,0), 5 CTAs running
GPGPU-Sim uArch: core:  2, cta: 5 initialized @(1980,0)
GPGPU-Sim uArch: Shader 12 finished CTA #0 (1981,0), 5 CTAs running
GPGPU-Sim uArch: Shader 12 finished CTA #1 (1981,0), 4 CTAs running
GPGPU-Sim uArch: core: 12, cta: 0 initialized @(1982,0)
GPGPU-Sim uArch: core: 12, cta: 1 initialized @(1983,0)
GPGPU-Sim uArch: Shader 9 finished CTA #5 (1985,0), 5 CTAs running
GPGPU-Sim uArch: core:  9, cta: 5 initialized @(1986,0)
GPGPU-Sim uArch: Shader 1 finished CTA #5 (1989,0), 5 CTAs running
GPGPU-Sim uArch: Shader 7 finished CTA #5 (1989,0), 5 CTAs running
GPGPU-Sim uArch: Shader 10 finished CTA #0 (1989,0), 5 CTAs running
GPGPU-Sim uArch: core: 10, cta: 0 initialized @(1990,0)
GPGPU-Sim uArch: core:  1, cta: 5 initialized @(1990,0)
GPGPU-Sim uArch: core:  7, cta: 5 initialized @(1990,0)
GPGPU-Sim uArch: Shader 14 finished CTA #1 (1992,0), 5 CTAs running
GPGPU-Sim uArch: core: 14, cta: 1 initialized @(1993,0)
GPGPU-Sim uArch: Shader 7 finished CTA #1 (1995,0), 5 CTAs running
GPGPU-Sim uArch: Shader 7 finished CTA #2 (1995,0), 4 CTAs running
GPGPU-Sim uArch: core:  7, cta: 1 initialized @(1996,0)
GPGPU-Sim uArch: core:  7, cta: 2 initialized @(1997,0)
GPGPU-Sim uArch: Shader 8 finished CTA #5 (1999,0), 5 CTAs running
GPGPU-Sim uArch: Shader 10 finished CTA #1 (1999,0), 5 CTAs running
GPGPU-Sim uArch: core:  8, cta: 5 initialized @(2000,0)
GPGPU-Sim uArch: core: 10, cta: 1 initialized @(2000,0)
GPGPU-Sim uArch: Shader 11 finished CTA #5 (2002,0), 5 CTAs running
GPGPU-Sim uArch: core: 11, cta: 5 initialized @(2003,0)
GPGPU-Sim uArch: Shader 10 finished CTA #5 (2007,0), 5 CTAs running
GPGPU-Sim uArch: core: 10, cta: 5 initialized @(2008,0)
GPGPU-Sim uArch: Shader 13 finished CTA #1 (2019,0), 5 CTAs running
GPGPU-Sim uArch: core: 13, cta: 1 initialized @(2020,0)
GPGPU-Sim uArch: Shader 5 finished CTA #3 (2026,0), 5 CTAs running
GPGPU-Sim uArch: Shader 5 finished CTA #4 (2026,0), 4 CTAs running
GPGPU-Sim uArch: core:  5, cta: 3 initialized @(2027,0)
GPGPU-Sim uArch: Shader 3 finished CTA #2 (2027,0), 5 CTAs running
GPGPU-Sim uArch: Shader 3 finished CTA #3 (2027,0), 4 CTAs running
GPGPU-Sim uArch: core:  3, cta: 2 initialized @(2028,0)
GPGPU-Sim uArch: core:  5, cta: 4 initialized @(2028,0)
GPGPU-Sim uArch: core:  3, cta: 3 initialized @(2029,0)
GPGPU-Sim uArch: Shader 0 finished CTA #4 (2043,0), 5 CTAs running
GPGPU-Sim uArch: core:  0, cta: 4 initialized @(2044,0)
GPGPU-Sim uArch: Shader 11 finished CTA #0 (2048,0), 5 CTAs running
GPGPU-Sim uArch: core: 11, cta: 0 initialized @(2049,0)
GPGPU-Sim uArch: Shader 4 finished CTA #5 (2051,0), 5 CTAs running
GPGPU-Sim uArch: core:  4, cta: 5 initialized @(2052,0)
GPGPU-Sim uArch: Shader 10 finished CTA #4 (2055,0), 5 CTAs running
GPGPU-Sim uArch: core: 10, cta: 4 initialized @(2056,0)
GPGPU-Sim uArch: Shader 12 finished CTA #2 (2061,0), 5 CTAs running
GPGPU-Sim uArch: core: 12, cta: 2 initialized @(2062,0)
GPGPU-Sim uArch: Shader 5 finished CTA #5 (2063,0), 5 CTAs running
GPGPU-Sim uArch: core:  5, cta: 5 initialized @(2064,0)
GPGPU-Sim uArch: Shader 8 finished CTA #4 (2064,0), 5 CTAs running
GPGPU-Sim uArch: core:  8, cta: 4 initialized @(2065,0)
GPGPU-Sim uArch: Shader 6 finished CTA #3 (2068,0), 5 CTAs running
GPGPU-Sim uArch: core:  6, cta: 3 initialized @(2069,0)
GPGPU-Sim uArch: Shader 3 finished CTA #4 (2074,0), 5 CTAs running
GPGPU-Sim uArch: core:  3, cta: 4 initialized @(2075,0)
GPGPU-Sim uArch: Shader 2 finished CTA #2 (2081,0), 5 CTAs running
GPGPU-Sim uArch: core:  2, cta: 2 initialized @(2082,0)
GPGPU-Sim uArch: Shader 0 finished CTA #5 (2083,0), 5 CTAs running
GPGPU-Sim uArch: Shader 7 finished CTA #3 (2083,0), 5 CTAs running
GPGPU-Sim uArch: Shader 7 finished CTA #4 (2083,0), 4 CTAs running
GPGPU-Sim uArch: core:  7, cta: 3 initialized @(2084,0)
GPGPU-Sim uArch: core:  0, cta: 5 initialized @(2084,0)
GPGPU-Sim uArch: core:  7, cta: 4 initialized @(2085,0)
GPGPU-Sim PTX: 800000 instructions simulated : ctaid=(206,0,0) tid=(167,0,0)
GPGPU-Sim uArch: Shader 14 finished CTA #3 (2092,0), 5 CTAs running
GPGPU-Sim uArch: Shader 14 finished CTA #4 (2092,0), 4 CTAs running
GPGPU-Sim uArch: core: 14, cta: 3 initialized @(2093,0)
GPGPU-Sim uArch: core: 14, cta: 4 initialized @(2094,0)
GPGPU-Sim uArch: Shader 13 finished CTA #2 (2099,0), 5 CTAs running
GPGPU-Sim uArch: core: 13, cta: 2 initialized @(2100,0)
GPGPU-Sim uArch: Shader 13 finished CTA #5 (2105,0), 5 CTAs running
GPGPU-Sim uArch: core: 13, cta: 5 initialized @(2106,0)
GPGPU-Sim uArch: Shader 6 finished CTA #4 (2107,0), 5 CTAs running
GPGPU-Sim uArch: core:  6, cta: 4 initialized @(2108,0)
GPGPU-Sim uArch: Shader 11 finished CTA #1 (2111,0), 5 CTAs running
GPGPU-Sim uArch: core: 11, cta: 1 initialized @(2112,0)
GPGPU-Sim uArch: Shader 8 finished CTA #0 (2115,0), 5 CTAs running
GPGPU-Sim uArch: Shader 8 finished CTA #1 (2115,0), 4 CTAs running
GPGPU-Sim uArch: Shader 8 finished CTA #2 (2115,0), 3 CTAs running
GPGPU-Sim uArch: core:  8, cta: 0 initialized @(2116,0)
GPGPU-Sim uArch: Shader 3 finished CTA #5 (2116,0), 5 CTAs running
GPGPU-Sim uArch: core:  3, cta: 5 initialized @(2117,0)
GPGPU-Sim uArch: core:  8, cta: 1 initialized @(2117,0)
GPGPU-Sim uArch: core:  8, cta: 2 initialized @(2118,0)
GPGPU-Sim uArch: Shader 14 finished CTA #5 (2125,0), 5 CTAs running
GPGPU-Sim uArch: Shader 14 finished CTA #2 (2131,0), 4 CTAs running
GPGPU-Sim uArch: Shader 9 finished CTA #2 (2133,0), 5 CTAs running
GPGPU-Sim uArch: Shader 9 finished CTA #3 (2133,0), 4 CTAs running
GPGPU-Sim uArch: Shader 4 finished CTA #4 (2134,0), 5 CTAs running
GPGPU-Sim uArch: Shader 11 finished CTA #2 (2144,0), 5 CTAs running
GPGPU-Sim uArch: Shader 11 finished CTA #3 (2144,0), 4 CTAs running
GPGPU-Sim uArch: Shader 12 finished CTA #3 (2147,0), 5 CTAs running
GPGPU-Sim uArch: Shader 12 finished CTA #5 (2155,0), 4 CTAs running
GPGPU-Sim uArch: Shader 10 finished CTA #3 (2156,0), 5 CTAs running
GPGPU-Sim uArch: Shader 8 finished CTA #3 (2163,0), 5 CTAs running
GPGPU-Sim uArch: Shader 10 finished CTA #2 (2188,0), 4 CTAs running
GPGPU-Sim PTX: 900000 instructions simulated : ctaid=(251,0,0) tid=(103,0,0)
GPGPU-Sim uArch: Shader 1 finished CTA #1 (2238,0), 5 CTAs running
GPGPU-Sim uArch: Shader 0 finished CTA #0 (2246,0), 5 CTAs running
GPGPU-Sim uArch: Shader 5 finished CTA #0 (2256,0), 5 CTAs running
GPGPU-Sim uArch: Shader 2 finished CTA #3 (2267,0), 5 CTAs running
GPGPU-Sim uArch: Shader 11 finished CTA #4 (2272,0), 3 CTAs running
GPGPU-Sim uArch: Shader 1 finished CTA #3 (2285,0), 4 CTAs running
GPGPU-Sim uArch: Shader 14 finished CTA #0 (2288,0), 3 CTAs running
GPGPU-Sim uArch: Shader 5 finished CTA #1 (2296,0), 4 CTAs running
GPGPU-Sim uArch: Shader 4 finished CTA #0 (2297,0), 4 CTAs running
GPGPU-Sim uArch: Shader 13 finished CTA #3 (2299,0), 5 CTAs running
GPGPU-Sim uArch: Shader 6 finished CTA #0 (2303,0), 5 CTAs running
GPGPU-Sim uArch: Shader 9 finished CTA #4 (2315,0), 3 CTAs running
GPGPU-Sim uArch: Shader 9 finished CTA #0 (2328,0), 2 CTAs running
GPGPU-Sim uArch: Shader 1 finished CTA #4 (2342,0), 3 CTAs running
GPGPU-Sim uArch: Shader 3 finished CTA #0 (2345,0), 5 CTAs running
GPGPU-Sim uArch: Shader 13 finished CTA #4 (2345,0), 4 CTAs running
GPGPU-Sim uArch: Shader 4 finished CTA #1 (2367,0), 3 CTAs running
GPGPU-Sim uArch: Shader 7 finished CTA #0 (2372,0), 5 CTAs running
GPGPU-Sim uArch: Shader 2 finished CTA #0 (2376,0), 4 CTAs running
GPGPU-Sim uArch: Shader 4 finished CTA #2 (2379,0), 2 CTAs running
GPGPU-Sim uArch: Shader 14 finished CTA #1 (2388,0), 2 CTAs running
GPGPU-Sim uArch: Shader 6 finished CTA #1 (2400,0), 4 CTAs running
GPGPU-Sim uArch: Shader 1 finished CTA #2 (2402,0), 2 CTAs running
GPGPU-Sim uArch: Shader 0 finished CTA #3 (2410,0), 4 CTAs running
GPGPU-Sim uArch: Shader 6 finished CTA #2 (2410,0), 3 CTAs running
GPGPU-Sim uArch: Shader 5 finished CTA #2 (2413,0), 3 CTAs running
GPGPU-Sim uArch: Shader 12 finished CTA #4 (2419,0), 3 CTAs running
GPGPU-Sim uArch: Shader 1 finished CTA #5 (2427,0), 1 CTAs running
GPGPU-Sim uArch: Shader 11 finished CTA #5 (2432,0), 2 CTAs running
GPGPU-Sim uArch: Shader 4 finished CTA #3 (2438,0), 1 CTAs running
GPGPU-Sim uArch: Shader 3 finished CTA #1 (2456,0), 4 CTAs running
GPGPU-Sim uArch: Shader 9 finished CTA #1 (2458,0), 1 CTAs running
GPGPU-Sim uArch: Shader 0 finished CTA #2 (2462,0), 3 CTAs running
GPGPU-Sim uArch: Shader 2 finished CTA #4 (2467,0), 3 CTAs running
GPGPU-Sim uArch: Shader 13 finished CTA #0 (2467,0), 3 CTAs running
GPGPU-Sim uArch: Shader 12 finished CTA #0 (2469,0), 2 CTAs running
GPGPU-Sim uArch: Shader 9 finished CTA #5 (2471,0), 0 CTAs running
GPGPU-Sim uArch: Shader 9 empty (release kernel 1 '_Z6KernelP4NodePiPbS2_S1_S2_i').
GPGPU-Sim uArch: Shader 8 finished CTA #5 (2474,0), 4 CTAs running
GPGPU-Sim uArch: Shader 6 finished CTA #5 (2476,0), 2 CTAs running
GPGPU-Sim uArch: Shader 12 finished CTA #1 (2482,0), 1 CTAs running
GPGPU-Sim uArch: Shader 0 finished CTA #1 (2486,0), 2 CTAs running
GPGPU-Sim uArch: Shader 4 finished CTA #5 (2491,0), 0 CTAs running
GPGPU-Sim uArch: Shader 4 empty (release kernel 1 '_Z6KernelP4NodePiPbS2_S1_S2_i').
GPGPU-Sim uArch: Shader 2 finished CTA #1 (2496,0), 2 CTAs running
GPGPU-Sim uArch: cycles simulated: 2500  inst.: 887194 (ipc=354.9) sim_rate=221798 (inst/sec) elapsed = 0:0:00:04 / Sun Feb 28 21:36:40 2016
GPGPU-Sim uArch: Shader 2 finished CTA #5 (2509,0), 1 CTAs running
GPGPU-Sim uArch: Shader 10 finished CTA #0 (2510,0), 3 CTAs running
GPGPU-Sim uArch: Shader 10 finished CTA #1 (2510,0), 2 CTAs running
GPGPU-Sim uArch: Shader 13 finished CTA #1 (2510,0), 2 CTAs running
GPGPU-Sim uArch: Shader 5 finished CTA #4 (2526,0), 2 CTAs running
GPGPU-Sim uArch: Shader 7 finished CTA #5 (2527,0), 4 CTAs running
GPGPU-Sim uArch: Shader 14 finished CTA #4 (2528,0), 1 CTAs running
GPGPU-Sim uArch: Shader 10 finished CTA #5 (2533,0), 1 CTAs running
GPGPU-Sim uArch: Shader 5 finished CTA #3 (2534,0), 1 CTAs running
GPGPU-Sim uArch: Shader 6 finished CTA #3 (2540,0), 1 CTAs running
GPGPU-Sim uArch: Shader 12 finished CTA #2 (2544,0), 0 CTAs running
GPGPU-Sim uArch: Shader 12 empty (release kernel 1 '_Z6KernelP4NodePiPbS2_S1_S2_i').
GPGPU-Sim uArch: Shader 5 finished CTA #5 (2545,0), 0 CTAs running
GPGPU-Sim uArch: Shader 5 empty (release kernel 1 '_Z6KernelP4NodePiPbS2_S1_S2_i').
GPGPU-Sim uArch: Shader 7 finished CTA #2 (2546,0), 3 CTAs running
GPGPU-Sim uArch: Shader 10 finished CTA #4 (2546,0), 0 CTAs running
GPGPU-Sim uArch: Shader 10 empty (release kernel 1 '_Z6KernelP4NodePiPbS2_S1_S2_i').
GPGPU-Sim uArch: Shader 11 finished CTA #1 (2563,0), 1 CTAs running
GPGPU-Sim uArch: Shader 13 finished CTA #2 (2563,0), 1 CTAs running
GPGPU-Sim uArch: Shader 6 finished CTA #4 (2564,0), 0 CTAs running
GPGPU-Sim uArch: Shader 6 empty (release kernel 1 '_Z6KernelP4NodePiPbS2_S1_S2_i').
GPGPU-Sim uArch: Shader 11 finished CTA #0 (2564,0), 0 CTAs running
GPGPU-Sim uArch: Shader 11 empty (release kernel 1 '_Z6KernelP4NodePiPbS2_S1_S2_i').
GPGPU-Sim uArch: Shader 14 finished CTA #3 (2565,0), 0 CTAs running
GPGPU-Sim uArch: Shader 14 empty (release kernel 1 '_Z6KernelP4NodePiPbS2_S1_S2_i').
GPGPU-Sim uArch: Shader 13 finished CTA #5 (2576,0), 0 CTAs running
GPGPU-Sim uArch: Shader 13 empty (release kernel 1 '_Z6KernelP4NodePiPbS2_S1_S2_i').
GPGPU-Sim uArch: Shader 8 finished CTA #4 (2579,0), 3 CTAs running
GPGPU-Sim uArch: Shader 0 finished CTA #4 (2584,0), 1 CTAs running
GPGPU-Sim uArch: Shader 7 finished CTA #1 (2585,0), 2 CTAs running
GPGPU-Sim uArch: Shader 3 finished CTA #2 (2599,0), 3 CTAs running
GPGPU-Sim uArch: Shader 2 finished CTA #2 (2603,0), 0 CTAs running
GPGPU-Sim uArch: Shader 2 empty (release kernel 1 '_Z6KernelP4NodePiPbS2_S1_S2_i').
GPGPU-Sim uArch: Shader 7 finished CTA #3 (2607,0), 1 CTAs running
GPGPU-Sim uArch: Shader 0 finished CTA #5 (2609,0), 0 CTAs running
GPGPU-Sim uArch: Shader 0 empty (release kernel 1 '_Z6KernelP4NodePiPbS2_S1_S2_i').
GPGPU-Sim uArch: Shader 3 finished CTA #3 (2615,0), 2 CTAs running
GPGPU-Sim uArch: Shader 3 finished CTA #4 (2615,0), 1 CTAs running
GPGPU-Sim uArch: Shader 7 finished CTA #4 (2618,0), 0 CTAs running
GPGPU-Sim uArch: Shader 7 empty (release kernel 1 '_Z6KernelP4NodePiPbS2_S1_S2_i').
GPGPU-Sim uArch: Shader 3 finished CTA #5 (2628,0), 0 CTAs running
GPGPU-Sim uArch: Shader 3 empty (release kernel 1 '_Z6KernelP4NodePiPbS2_S1_S2_i').
GPGPU-Sim uArch: Shader 8 finished CTA #0 (2629,0), 2 CTAs running
GPGPU-Sim uArch: Shader 8 finished CTA #1 (2648,0), 1 CTAs running
GPGPU-Sim uArch: Shader 8 finished CTA #2 (2649,0), 0 CTAs running
GPGPU-Sim uArch: Shader 8 empty (release kernel 1 '_Z6KernelP4NodePiPbS2_S1_S2_i').
GPGPU-Sim uArch: Shader 1 finished CTA #0 (5875,0), 0 CTAs running
GPGPU-Sim uArch: Shader 1 empty (release kernel 1 '_Z6KernelP4NodePiPbS2_S1_S2_i').
GPGPU-Sim uArch: GPU detected kernel '_Z6KernelP4NodePiPbS2_S1_S2_i' finished on shader 1.
GPGPU-Sim: synchronize waiting for inactive GPU simulation
kernel_name = _Z6KernelP4NodePiPbS2_S1_S2_i 
kernel_launch_uid = 1 
gpu_sim_cycle = 5876
gpu_sim_insn = 917736
gpu_ipc =     156.1838
gpu_tot_sim_cycle = 5876
gpu_tot_sim_insn = 917736
gpu_tot_ipc =     156.1838
gpu_tot_issued_cta = 256
gpu_stall_dramfull = 319
gpu_stall_icnt2sh    = 148
gpu_total_sim_rate=229434

========= Core cache stats =========
L1I_cache:
	L1I_total_cache_accesses = 18559
	L1I_total_cache_misses = 962
	L1I_total_cache_miss_rate = 0.0518
	L1I_total_cache_pending_hits = 0
	L1I_total_cache_reservation_fails = 5821
L1D_cache:
	L1D_cache_core[0]: Access = 144, Miss = 36, Miss_rate = 0.250, Pending_hits = 108, Reservation_fails = 0
	L1D_cache_core[1]: Access = 196, Miss = 68, Miss_rate = 0.347, Pending_hits = 96, Reservation_fails = 0
	L1D_cache_core[2]: Access = 144, Miss = 36, Miss_rate = 0.250, Pending_hits = 108, Reservation_fails = 0
	L1D_cache_core[3]: Access = 144, Miss = 36, Miss_rate = 0.250, Pending_hits = 108, Reservation_fails = 0
	L1D_cache_core[4]: Access = 136, Miss = 34, Miss_rate = 0.250, Pending_hits = 102, Reservation_fails = 0
	L1D_cache_core[5]: Access = 144, Miss = 36, Miss_rate = 0.250, Pending_hits = 108, Reservation_fails = 0
	L1D_cache_core[6]: Access = 144, Miss = 36, Miss_rate = 0.250, Pending_hits = 108, Reservation_fails = 0
	L1D_cache_core[7]: Access = 144, Miss = 36, Miss_rate = 0.250, Pending_hits = 108, Reservation_fails = 0
	L1D_cache_core[8]: Access = 136, Miss = 34, Miss_rate = 0.250, Pending_hits = 102, Reservation_fails = 0
	L1D_cache_core[9]: Access = 128, Miss = 32, Miss_rate = 0.250, Pending_hits = 96, Reservation_fails = 0
	L1D_cache_core[10]: Access = 128, Miss = 32, Miss_rate = 0.250, Pending_hits = 96, Reservation_fails = 0
	L1D_cache_core[11]: Access = 128, Miss = 32, Miss_rate = 0.250, Pending_hits = 96, Reservation_fails = 0
	L1D_cache_core[12]: Access = 128, Miss = 32, Miss_rate = 0.250, Pending_hits = 96, Reservation_fails = 0
	L1D_cache_core[13]: Access = 144, Miss = 36, Miss_rate = 0.250, Pending_hits = 108, Reservation_fails = 0
	L1D_cache_core[14]: Access = 128, Miss = 32, Miss_rate = 0.250, Pending_hits = 96, Reservation_fails = 0
	L1D_total_cache_accesses = 2116
	L1D_total_cache_misses = 548
	L1D_total_cache_miss_rate = 0.2590
	L1D_total_cache_pending_hits = 1536
	L1D_total_cache_reservation_fails = 0
	L1D_cache_data_port_util = 0.001
	L1D_cache_fill_port_util = 0.012
L1C_cache:
	L1C_total_cache_accesses = 4115
	L1C_total_cache_misses = 480
	L1C_total_cache_miss_rate = 0.1166
	L1C_total_cache_pending_hits = 0
	L1C_total_cache_reservation_fails = 3515
L1T_cache:
	L1T_total_cache_accesses = 0
	L1T_total_cache_misses = 0
	L1T_total_cache_pending_hits = 0
	L1T_total_cache_reservation_fails = 0

Total_core_cache_stats:
	Total_core_cache_stats_breakdown[GLOBAL_ACC_R][HIT] = 31
	Total_core_cache_stats_breakdown[GLOBAL_ACC_R][HIT_RESERVED] = 1536
	Total_core_cache_stats_breakdown[GLOBAL_ACC_R][MISS] = 523
	Total_core_cache_stats_breakdown[CONST_ACC_R][HIT] = 3635
	Total_core_cache_stats_breakdown[CONST_ACC_R][MISS] = 480
	Total_core_cache_stats_breakdown[CONST_ACC_R][RESERVATION_FAIL] = 3515
	Total_core_cache_stats_breakdown[GLOBAL_ACC_W][HIT] = 1
	Total_core_cache_stats_breakdown[GLOBAL_ACC_W][MISS] = 25
	Total_core_cache_stats_breakdown[INST_ACC_R][HIT] = 17597
	Total_core_cache_stats_breakdown[INST_ACC_R][MISS] = 962
	Total_core_cache_stats_breakdown[INST_ACC_R][RESERVATION_FAIL] = 5821
Shader 0 warp_id issue ditsribution:
warp_id:
0, 1, 2, 3, 4, 5, 6, 7, 8, 9, 10, 11, 12, 13, 14, 15, 16, 17, 18, 19, 20, 21, 22, 23, 24, 25, 26, 27, 28, 29, 30, 31, 32, 33, 34, 35, 36, 37, 38, 39, 40, 41, 42, 43, 44, 45, 46, 47, 
distro:
45, 45, 45, 45, 45, 45, 45, 45, 45, 45, 45, 45, 45, 45, 45, 45, 45, 45, 45, 45, 45, 45, 45, 45, 45, 45, 45, 45, 45, 45, 45, 45, 45, 45, 45, 45, 45, 45, 45, 45, 45, 45, 45, 45, 45, 45, 45, 45, 
gpgpu_n_tot_thrd_icount = 990816
gpgpu_n_tot_w_icount = 30963
gpgpu_n_stall_shd_mem = 3515
gpgpu_n_mem_read_local = 0
gpgpu_n_mem_write_local = 0
gpgpu_n_mem_read_global = 523
gpgpu_n_mem_write_global = 26
gpgpu_n_mem_texture = 0
gpgpu_n_mem_const = 15
gpgpu_n_load_insn  = 65578
gpgpu_n_store_insn = 26
gpgpu_n_shmem_insn = 0
gpgpu_n_tex_insn = 0
gpgpu_n_const_mem_insn = 0
gpgpu_n_param_mem_insn = 131091
gpgpu_n_shmem_bkconflict = 0
gpgpu_n_cache_bkconflict = 0
gpgpu_n_intrawarp_mshr_merge = 0
gpgpu_n_cmem_portconflict = 3515
gpgpu_stall_shd_mem[c_mem][bk_conf] = 3515
gpgpu_stall_shd_mem[c_mem][mshr_rc] = 0
gpgpu_stall_shd_mem[c_mem][icnt_rc] = 0
gpgpu_stall_shd_mem[c_mem][data_port_stall] = 0
gpgpu_stall_shd_mem[t_mem][mshr_rc] = 0
gpgpu_stall_shd_mem[t_mem][icnt_rc] = 0
gpgpu_stall_shd_mem[t_mem][data_port_stall] = 0
gpgpu_stall_shd_mem[s_mem][bk_conf] = 0
gpgpu_stall_shd_mem[gl_mem][bk_conf] = 0
gpgpu_stall_shd_mem[gl_mem][coal_stall] = 0
gpgpu_stall_shd_mem[gl_mem][data_port_stall] = 0
gpgpu_stall_shd_mem[g_mem_ld][mshr_rc] = 0
gpgpu_stall_shd_mem[g_mem_ld][icnt_rc] = 0
gpgpu_stall_shd_mem[g_mem_ld][wb_icnt_rc] = 0
gpgpu_stall_shd_mem[g_mem_ld][wb_rsrv_fail] = 0
gpgpu_stall_shd_mem[g_mem_st][mshr_rc] = 0
gpgpu_stall_shd_mem[g_mem_st][icnt_rc] = 0
gpgpu_stall_shd_mem[g_mem_st][wb_icnt_rc] = 0
gpgpu_stall_shd_mem[g_mem_st][wb_rsrv_fail] = 0
gpgpu_stall_shd_mem[l_mem_ld][mshr_rc] = 0
gpgpu_stall_shd_mem[l_mem_ld][icnt_rc] = 0
gpgpu_stall_shd_mem[l_mem_ld][wb_icnt_rc] = 0
gpgpu_stall_shd_mem[l_mem_ld][wb_rsrv_fail] = 0
gpgpu_stall_shd_mem[l_mem_st][mshr_rc] = 0
gpgpu_stall_shd_mem[l_mem_st][icnt_rc] = 0
gpgpu_stall_shd_mem[l_mem_ld][wb_icnt_rc] = 0
gpgpu_stall_shd_mem[l_mem_ld][wb_rsrv_fail] = 0
gpu_reg_bank_conflict_stalls = 0
Warp Occupancy Distribution:
Stall:7804	W0_Idle:16637	W0_Scoreboard:28322	W1:243	W2:0	W3:0	W4:0	W5:0	W6:0	W7:0	W8:0	W9:0	W10:0	W11:0	W12:0	W13:0	W14:0	W15:0	W16:0	W17:0	W18:0	W19:0	W20:0	W21:0	W22:0	W23:0	W24:0	W25:0	W26:0	W27:0	W28:0	W29:0	W30:0	W31:0	W32:30720
traffic_breakdown_coretomem[CONST_ACC_R] = 120 {8:15,}
traffic_breakdown_coretomem[GLOBAL_ACC_R] = 4184 {8:523,}
traffic_breakdown_coretomem[GLOBAL_ACC_W] = 1040 {40:26,}
traffic_breakdown_coretomem[INST_ACC_R] = 256 {8:32,}
traffic_breakdown_memtocore[CONST_ACC_R] = 1080 {72:15,}
traffic_breakdown_memtocore[GLOBAL_ACC_R] = 71128 {136:523,}
traffic_breakdown_memtocore[GLOBAL_ACC_W] = 208 {8:26,}
traffic_breakdown_memtocore[INST_ACC_R] = 4352 {136:32,}
maxmrqlatency = 158 
maxdqlatency = 0 
maxmflatency = 432 
averagemflatency = 305 
max_icnt2mem_latency = 36 
max_icnt2sh_latency = 5875 
mrq_lat_table:150 	3 	20 	15 	25 	27 	37 	13 	0 	0 	0 	0 	0 	0 	0 	0 	0 	0 	0 	0 	0 	0 	0 	0 	0 	0 	0 	0 	0 	0 	0 	0 	
dq_lat_table:0 	0 	0 	0 	0 	0 	0 	0 	0 	0 	0 	0 	0 	0 	0 	0 	0 	0 	0 	0 	0 	0 	0 	0 	0 	0 	0 	0 	0 	0 	0 	0 	
mf_lat_table:0 	0 	0 	0 	0 	0 	0 	37 	527 	0 	0 	0 	0 	0 	0 	0 	0 	0 	0 	0 	0 	0 	0 	0 	0 	0 	0 	0 	0 	0 	0 	0 	
icnt2mem_lat_table:0 	0 	0 	585 	8 	3 	0 	0 	0 	0 	0 	0 	0 	0 	0 	0 	0 	0 	0 	0 	0 	0 	0 	0 	
icnt2sh_lat_table:0 	0 	0 	236 	298 	4 	0 	0 	0 	0 	2 	9 	15 	0 	0 	0 	0 	0 	0 	0 	0 	0 	0 	0 	
mf_lat_pw_table:0 	0 	0 	0 	0 	0 	0 	5 	5 	0 	0 	0 	0 	0 	0 	0 	0 	0 	0 	0 	0 	0 	0 	0 	0 	0 	0 	0 	0 	0 	0 	0 	
maximum concurrent accesses to same row:
dram[0]:         1         0         0         0         0         0         0         0         0         0         0         0         0         0         0         0 
dram[1]:         0         0         0         0         0         0         0         0         0         0         0         0         0         0         0         0 
dram[2]:         0         0         0         0         0         0         0         0         0         0         0         0         0         0         0         0 
dram[3]:         0         0         0         0         0         0         0         0         0         0         0         0         0         0         0         0 
dram[4]:         0         0         0         0         0         0         0         0         0         0        11        11         0         0         0         0 
dram[5]:         0         0         0         0         0         0         0         0         0         0         0         0         0         0         0         0 
maximum service time to same row:
dram[0]:      2020         0      5857         0         0         0         0         0         0         0       960       937      1819      1826         0         0 
dram[1]:      1226         0         0         0         0         0         0         0         0         0       968       940      1822      1822         0      3850 
dram[2]:         0         0         0      2947         0      1437         0         0         0      4199       979       941      1829      1416         0         0 
dram[3]:         0         0         0      5024         0      4610         0         0         0         0       976       944      1838      1824         0         0 
dram[4]:         0      3776         0         0         0      5435         0         0         0         0      1031      2405      1828      1810      3016         0 
dram[5]:         0         0         0         0         0         0         0         0         0         0       932       959      1859      1831      5509         0 
average row accesses per activate:
dram[0]:  1.000000      -nan  2.000000      -nan      -nan      -nan      -nan      -nan      -nan      -nan 10.000000 11.000000 11.000000 11.000000      -nan      -nan 
dram[1]:  1.000000      -nan      -nan      -nan      -nan      -nan      -nan      -nan      -nan      -nan 10.000000 11.000000 13.000000 11.000000      -nan  3.000000 
dram[2]:      -nan      -nan      -nan  2.000000      -nan  1.000000      -nan      -nan      -nan  2.000000 10.000000 11.000000 11.000000 12.000000      -nan      -nan 
dram[3]:      -nan      -nan      -nan  2.000000      -nan  2.000000      -nan      -nan      -nan      -nan 10.000000 11.000000 11.000000 10.000000      -nan      -nan 
dram[4]:      -nan  2.000000      -nan      -nan      -nan  2.000000      -nan      -nan      -nan      -nan  4.666667  6.500000 11.000000 10.000000  2.000000      -nan 
dram[5]:      -nan      -nan      -nan      -nan      -nan      -nan      -nan      -nan      -nan      -nan 11.000000 11.000000 11.000000 10.000000  1.000000      -nan 
average row locality = 290/42 = 6.904762
number of total memory accesses made:
dram[0]:         0         0         0         0         0         0         0         0         0         0         0         0         0         0         0         0 
dram[1]:         0         0         0         0         0         0         0         0         0         0         0         0         0         0         0         0 
dram[2]:         0         0         0         0         0         0         0         0         0         0         0         0         0         0         0         0 
dram[3]:         0         0         0         0         0         0         0         0         0         0         0         0         0         0         0         0 
dram[4]:         0         0         0         0         0         0         0         0         0         0         0         0         0         0         0         0 
dram[5]:         0         0         0         0         0         0         0         0         0         0         0         0         0         0         0         0 
total accesses: 0
min_bank_accesses = 0!
min_chip_accesses = 0!
number of total read accesses:
dram[0]:         3         0         1         0         0         0         0         0         0         0        10        11        11        11         0         0 
dram[1]:         1         0         0         0         0         0         0         0         0         0        10        11        13        11         0         3 
dram[2]:         0         0         0         1         0         1         0         0         0         1        10        11        11        11         0         0 
dram[3]:         0         0         0         1         0         1         0         0         0         0        10        11        11        10         0         0 
dram[4]:         0         1         0         0         0         1         0         0         0         0        13        12        11        10         2         0 
dram[5]:         0         0         0         0         0         0         0         0         0         0        11        11        11        10         1         0 
total reads: 280
min_bank_accesses = 0!
chip skew: 50/44 = 1.14
number of total write accesses:
dram[0]:         0         0         1         0         0         0         0         0         0         0         0         0         0         0         0         0 
dram[1]:         0         0         0         0         0         0         0         0         0         0         0         0         0         0         0         0 
dram[2]:         0         0         0         1         0         0         0         0         0         1         0         0         0         1         0         0 
dram[3]:         0         0         0         1         0         1         0         0         0         0         0         0         0         0         0         0 
dram[4]:         0         1         0         0         0         1         0         0         0         0         1         1         0         0         0         0 
dram[5]:         0         0         0         0         0         0         0         0         0         0         0         0         0         0         0         0 
total reads: 10
min_bank_accesses = 0!
min_chip_accesses = 0!
average mf latency per bank:
dram[0]:       1477    none         125    none      none      none      none      none      none      none         555       696       605       661    none      none  
dram[1]:          0    none      none      none      none      none      none      none      none      none         578       699       516       638    none         275
dram[2]:     none      none      none         126    none         282    none      none      none         126       570       695       574       582    none      none  
dram[3]:     none      none      none         126    none         125    none      none      none      none         599       734       618       611    none      none  
dram[4]:     none         125    none      none      none         125    none      none      none      none         554       665       580       623       276    none  
dram[5]:     none      none      none      none      none      none      none      none      none      none         559       689       586       626       282    none  
maximum mf latency per bank:
dram[0]:        295         0       251         0         0         0         0         0         0         0       298       420       345       411         0         0
dram[1]:          0         0         0         0         0         0         0         0         0         0       305       398       311       413         0       282
dram[2]:          0         0         0       252         0       282         0         0         0       252       313       402       343       421         0         0
dram[3]:          0         0         0       252         0       251         0         0         0         0       317       420       343       411         0         0
dram[4]:          0       251         0         0         0       251         0         0         0         0       312       432       344       384       281         0
dram[5]:          0         0         0         0         0         0         0         0         0         0       302       418       329       417       282         0

Number of Memory Banks Accessed per Memory Operation per Warp (from 0):
0	0	0	0	0	0	0	0	0	0	0	0	0	0	0	0	0	0	0	0	0	0	0	0	0	0	0	0	0	0	0	0	0	0	0	0	0	0	0	0	0	0	0	0	0	0	0	0	0	0	0	0	0	0	0	0	0	0	0	0	0	0	0	0	0	0	0	0	0	0	0	0	0	0	0	0	0	0	0	0	0	0	0	0	0	0	0	0	0	0	0	0	0	0	0	0	
Average # of Memory Banks Accessed per Memory Operation per Warp=-nan

position of mrq chosen
0	0	0	0	0	0	0	0	0	0	0	0	0	0	0	0	

average position of mrq chosen = -nan
Memory Partition 0: 
Cache L2_bank_000:
MSHR contents
MSHR: tag=0x80234400, atomic=0 1 entries : 0x7f0e4fc43600 :  mf: uid= 34136, sid01:w00, part=0, addr=0x80234440, load , size=32, unknown  status = IN_PARTITION_DRAM (5875), 

Cache L2_bank_001:
MSHR contents

In Dram Latency Queue (total = 0): 
DRAM[0]: 16 bks, busW=4 BL=8 CL=12, tRRD=2 tCCD=6, tRCD=12 tRAS=28 tRP=12 tRC=40
n_cmd=7756 n_nop=7374 n_act=8 n_pre=2 n_req=48 n_rd=371 n_write=1 bw_util=0.09593
n_activity=1320 dram_eff=0.5636
bk0: 24a 7629i bk1: 0a 7753i bk2: 3a 7730i bk3: 0a 7754i bk4: 0a 7756i bk5: 0a 7756i bk6: 0a 7757i bk7: 0a 7757i bk8: 0a 7757i bk9: 0a 7758i bk10: 80a 7511i bk11: 88a 7294i bk12: 88a 7419i bk13: 88a 7229i bk14: 0a 7756i bk15: 0a 7756i 
dram_util_bins: 0 0 0 0 0 0 0 0 0 0
dram_eff_bins: 0 0 0 0 0 0 0 0 0 0
mrqq: max=5 avg=0.234399
Memory Partition 1: 
Cache L2_bank_002:
MSHR contents

Cache L2_bank_003:
MSHR contents

In Dram Latency Queue (total = 0): 
DRAM[1]: 16 bks, busW=4 BL=8 CL=12, tRRD=2 tCCD=6, tRCD=12 tRAS=28 tRP=12 tRC=40
n_cmd=7756 n_nop=7358 n_act=6 n_pre=0 n_req=49 n_rd=392 n_write=0 bw_util=0.1011
n_activity=1345 dram_eff=0.5829
bk0: 8a 7719i bk1: 0a 7753i bk2: 0a 7754i bk3: 0a 7754i bk4: 0a 7754i bk5: 0a 7754i bk6: 0a 7755i bk7: 0a 7756i bk8: 0a 7757i bk9: 0a 7760i bk10: 80a 7511i bk11: 88a 7271i bk12: 104a 7413i bk13: 88a 7295i bk14: 0a 7755i bk15: 24a 7677i 
dram_util_bins: 0 0 0 0 0 0 0 0 0 0
dram_eff_bins: 0 0 0 0 0 0 0 0 0 0
mrqq: max=6 avg=0.206292
Memory Partition 2: 
Cache L2_bank_004:
MSHR contents

Cache L2_bank_005:
MSHR contents

In Dram Latency Queue (total = 0): 
DRAM[2]: 16 bks, busW=4 BL=8 CL=12, tRRD=2 tCCD=6, tRCD=12 tRAS=28 tRP=12 tRC=40
n_cmd=7756 n_nop=7378 n_act=7 n_pre=0 n_req=49 n_rd=368 n_write=3 bw_util=0.09567
n_activity=1271 dram_eff=0.5838
bk0: 0a 7755i bk1: 0a 7756i bk2: 0a 7756i bk3: 8a 7716i bk4: 0a 7757i bk5: 8a 7721i bk6: 0a 7756i bk7: 0a 7757i bk8: 0a 7759i bk9: 8a 7718i bk10: 80a 7508i bk11: 88a 7273i bk12: 88a 7402i bk13: 88a 7255i bk14: 0a 7753i bk15: 0a 7754i 
dram_util_bins: 0 0 0 0 0 0 0 0 0 0
dram_eff_bins: 0 0 0 0 0 0 0 0 0 0
mrqq: max=5 avg=0.226921
Memory Partition 3: 
Cache L2_bank_006:
MSHR contents

Cache L2_bank_007:
MSHR contents

In Dram Latency Queue (total = 0): 
DRAM[3]: 16 bks, busW=4 BL=8 CL=12, tRRD=2 tCCD=6, tRCD=12 tRAS=28 tRP=12 tRC=40
n_cmd=7756 n_nop=7396 n_act=6 n_pre=0 n_req=46 n_rd=352 n_write=2 bw_util=0.09128
n_activity=1208 dram_eff=0.5861
bk0: 0a 7756i bk1: 0a 7757i bk2: 0a 7758i bk3: 8a 7717i bk4: 0a 7756i bk5: 8a 7715i bk6: 0a 7754i bk7: 0a 7755i bk8: 0a 7757i bk9: 0a 7757i bk10: 80a 7492i bk11: 88a 7219i bk12: 88a 7432i bk13: 80a 7290i bk14: 0a 7753i bk15: 0a 7755i 
dram_util_bins: 0 0 0 0 0 0 0 0 0 0
dram_eff_bins: 0 0 0 0 0 0 0 0 0 0
mrqq: max=5 avg=0.20526
Memory Partition 4: 
Cache L2_bank_008:
MSHR contents

Cache L2_bank_009:
MSHR contents

In Dram Latency Queue (total = 0): 
DRAM[4]: 16 bks, busW=4 BL=8 CL=12, tRRD=2 tCCD=6, tRCD=12 tRAS=28 tRP=12 tRC=40
n_cmd=7756 n_nop=7339 n_act=10 n_pre=3 n_req=54 n_rd=400 n_write=4 bw_util=0.1042
n_activity=1446 dram_eff=0.5588
bk0: 0a 7754i bk1: 8a 7715i bk2: 0a 7755i bk3: 0a 7755i bk4: 0a 7756i bk5: 8a 7717i bk6: 0a 7757i bk7: 0a 7758i bk8: 0a 7759i bk9: 0a 7759i bk10: 104a 7364i bk11: 96a 7172i bk12: 88a 7422i bk13: 80a 7285i bk14: 16a 7696i bk15: 0a 7753i 
dram_util_bins: 0 0 0 0 0 0 0 0 0 0
dram_eff_bins: 0 0 0 0 0 0 0 0 0 0
mrqq: max=7 avg=0.247163
Memory Partition 5: 
Cache L2_bank_010:
MSHR contents

Cache L2_bank_011:
MSHR contents

In Dram Latency Queue (total = 0): 
DRAM[5]: 16 bks, busW=4 BL=8 CL=12, tRRD=2 tCCD=6, tRCD=12 tRAS=28 tRP=12 tRC=40
n_cmd=7756 n_nop=7399 n_act=5 n_pre=0 n_req=44 n_rd=352 n_write=0 bw_util=0.09077
n_activity=1191 dram_eff=0.5911
bk0: 0a 7754i bk1: 0a 7755i bk2: 0a 7756i bk3: 0a 7756i bk4: 0a 7756i bk5: 0a 7757i bk6: 0a 7757i bk7: 0a 7757i bk8: 0a 7757i bk9: 0a 7757i bk10: 88a 7473i bk11: 88a 7222i bk12: 88a 7425i bk13: 80a 7304i bk14: 8a 7719i bk15: 0a 7753i 
dram_util_bins: 0 0 0 0 0 0 0 0 0 0
dram_eff_bins: 0 0 0 0 0 0 0 0 0 0
mrqq: max=5 avg=0.188499

========= L2 cache stats =========
L2_cache_bank[0]: Access = 77, Miss = 25, Miss_rate = 0.325, Pending_hits = 27, Reservation_fails = 259
L2_cache_bank[1]: Access = 44, Miss = 22, Miss_rate = 0.500, Pending_hits = 22, Reservation_fails = 0
L2_cache_bank[2]: Access = 61, Miss = 24, Miss_rate = 0.393, Pending_hits = 24, Reservation_fails = 120
L2_cache_bank[3]: Access = 47, Miss = 25, Miss_rate = 0.532, Pending_hits = 22, Reservation_fails = 0
L2_cache_bank[4]: Access = 42, Miss = 21, Miss_rate = 0.500, Pending_hits = 21, Reservation_fails = 0
L2_cache_bank[5]: Access = 46, Miss = 25, Miss_rate = 0.543, Pending_hits = 21, Reservation_fails = 0
L2_cache_bank[6]: Access = 45, Miss = 21, Miss_rate = 0.467, Pending_hits = 21, Reservation_fails = 0
L2_cache_bank[7]: Access = 46, Miss = 23, Miss_rate = 0.500, Pending_hits = 21, Reservation_fails = 0
L2_cache_bank[8]: Access = 56, Miss = 26, Miss_rate = 0.464, Pending_hits = 22, Reservation_fails = 0
L2_cache_bank[9]: Access = 45, Miss = 24, Miss_rate = 0.533, Pending_hits = 21, Reservation_fails = 0
L2_cache_bank[10]: Access = 45, Miss = 23, Miss_rate = 0.511, Pending_hits = 22, Reservation_fails = 0
L2_cache_bank[11]: Access = 42, Miss = 21, Miss_rate = 0.500, Pending_hits = 21, Reservation_fails = 0
L2_total_cache_accesses = 596
L2_total_cache_misses = 280
L2_total_cache_miss_rate = 0.4698
L2_total_cache_pending_hits = 265
L2_total_cache_reservation_fails = 379
L2_total_cache_breakdown:
	L2_cache_stats_breakdown[GLOBAL_ACC_R][HIT_RESERVED] = 256
	L2_cache_stats_breakdown[GLOBAL_ACC_R][MISS] = 267
	L2_cache_stats_breakdown[CONST_ACC_R][HIT] = 11
	L2_cache_stats_breakdown[CONST_ACC_R][HIT_RESERVED] = 3
	L2_cache_stats_breakdown[CONST_ACC_R][MISS] = 1
	L2_cache_stats_breakdown[CONST_ACC_R][RESERVATION_FAIL] = 130
	L2_cache_stats_breakdown[GLOBAL_ACC_W][HIT] = 16
	L2_cache_stats_breakdown[GLOBAL_ACC_W][MISS] = 10
	L2_cache_stats_breakdown[INST_ACC_R][HIT] = 24
	L2_cache_stats_breakdown[INST_ACC_R][HIT_RESERVED] = 6
	L2_cache_stats_breakdown[INST_ACC_R][MISS] = 2
	L2_cache_stats_breakdown[INST_ACC_R][RESERVATION_FAIL] = 249
L2_cache_data_port_util = 0.002
L2_cache_fill_port_util = 0.063

icnt_total_pkts_mem_to_simt=2846
icnt_total_pkts_simt_to_mem=622
LD_mem_lat_dist  0 0 0 0 0 0 0 0 0 0 0 0 0 0 0 0 0 0 0 0 0 0 0 0 0 0 0
ST_mem_lat_dist  0 0 0 0 0 0 0 0 0 0 0 0 0 0 0 0 0 0 0 0 0 0 0 0 0 0 0
----------------------------Interconnect-DETAILS--------------------------------
Class 0:
Packet latency average = 10.1921
	minimum = 6
	maximum = 35
Network latency average = 9.12584
	minimum = 6
	maximum = 34
Slowest packet = 14
Flit latency average = 7.66407
	minimum = 6
	maximum = 34
Slowest flit = 14
Fragmentation average = 0
	minimum = 0
	maximum = 0
Injected packet rate average = 0.0075133
	minimum = 0.00595643 (at node 9)
	maximum = 0.0131042 (at node 15)
Accepted packet rate average = 0.0075133
	minimum = 0.00595643 (at node 9)
	maximum = 0.0131042 (at node 15)
Injected flit rate average = 0.0218592
	minimum = 0.00595643 (at node 9)
	maximum = 0.058373 (at node 15)
Accepted flit rate average= 0.0218592
	minimum = 0.00714772 (at node 19)
	maximum = 0.0449285 (at node 1)
Injected packet length average = 2.9094
Accepted packet length average = 2.9094
Total in-flight flits = 0 (0 measured)
====== Overall Traffic Statistics ======
====== Traffic class 0 ======
Packet latency average = 10.1921 (1 samples)
	minimum = 6 (1 samples)
	maximum = 35 (1 samples)
Network latency average = 9.12584 (1 samples)
	minimum = 6 (1 samples)
	maximum = 34 (1 samples)
Flit latency average = 7.66407 (1 samples)
	minimum = 6 (1 samples)
	maximum = 34 (1 samples)
Fragmentation average = 0 (1 samples)
	minimum = 0 (1 samples)
	maximum = 0 (1 samples)
Injected packet rate average = 0.0075133 (1 samples)
	minimum = 0.00595643 (1 samples)
	maximum = 0.0131042 (1 samples)
Accepted packet rate average = 0.0075133 (1 samples)
	minimum = 0.00595643 (1 samples)
	maximum = 0.0131042 (1 samples)
Injected flit rate average = 0.0218592 (1 samples)
	minimum = 0.00595643 (1 samples)
	maximum = 0.058373 (1 samples)
Accepted flit rate average = 0.0218592 (1 samples)
	minimum = 0.00714772 (1 samples)
	maximum = 0.0449285 (1 samples)
Injected packet size average = 2.9094 (1 samples)
Accepted packet size average = 2.9094 (1 samples)
Hops average = 1 (1 samples)
----------------------------END-of-Interconnect-DETAILS-------------------------
GPGPU-Sim API: Stream Manager State


gpgpu_simulation_time = 0 days, 0 hrs, 0 min, 4 sec (4 sec)
gpgpu_simulation_rate = 229434 (inst/sec)
gpgpu_simulation_rate = 1469 (cycle/sec)
GPGPU-Sim: detected inactive GPU simulation thread

GPGPU-Sim PTX: cudaLaunch for 0x0x405636 (mode=performance simulation) on stream 0
[...]
GPGPU-Sim uArch: core: 14, cta: 4 initialized @(221974,341585)
GPGPU-Sim uArch: cycles simulated: 563585  inst.: 11399246 (ipc=15.5) sim_rate=39718 (inst/sec) elapsed = 0:0:04:47 / Sun Feb 28 21:41:23 2016
GPGPU-Sim uArch: Shader 9 finished CTA #4 (222566,341585), 5 CTAs running
GPGPU-Sim uArch: core:  9, cta: 4 initialized @(222567,341585)
GPGPU-Sim uArch: cycles simulated: 565085  inst.: 11423779 (ipc=15.6) sim_rate=39665 (inst/sec) elapsed = 0:0:04:48 / Sun Feb 28 21:41:24 2016
GPGPU-Sim uArch: Shader 3 finished CTA #4 (224041,341585), 5 CTAs running
GPGPU-Sim uArch: core:  3, cta: 4 initialized @(224042,341585)
GPGPU-Sim PTX: 12100000 instructions simulated : ctaid=(90,0,0) tid=(46,0,0)
GPGPU-Sim uArch: cycles simulated: 567085  inst.: 11451998 (ipc=15.5) sim_rate=39626 (inst/sec) elapsed = 0:0:04:49 / Sun Feb 28 21:41:25 2016
GPGPU-Sim uArch: cycles simulated: 569085  inst.: 11484820 (ipc=15.5) sim_rate=39602 (inst/sec) elapsed = 0:0:04:50 / Sun Feb 28 21:41:26 2016
GPGPU-Sim uArch: Shader 2 finished CTA #4 (229013,341585), 5 CTAs running
GPGPU-Sim uArch: core:  2, cta: 4 initialized @(229014,341585)
GPGPU-Sim uArch: cycles simulated: 571085  inst.: 11512515 (ipc=15.5) sim_rate=39561 (inst/sec) elapsed = 0:0:04:51 / Sun Feb 28 21:41:27 2016
GPGPU-Sim uArch: Shader 13 finished CTA #4 (229574,341585), 5 CTAs running
GPGPU-Sim uArch: core: 13, cta: 4 initialized @(229575,341585)
GPGPU-Sim uArch: Shader 1 finished CTA #4 (229821,341585), 5 CTAs running
GPGPU-Sim uArch: core:  1, cta: 4 initialized @(229822,341585)
GPGPU-Sim PTX: 12200000 instructions simulated : ctaid=(150,0,0) tid=(22,0,0)
GPGPU-Sim uArch: cycles simulated: 572585  inst.: 11541869 (ipc=15.6) sim_rate=39526 (inst/sec) elapsed = 0:0:04:52 / Sun Feb 28 21:41:28 2016
GPGPU-Sim uArch: Shader 0 finished CTA #4 (231309,341585), 5 CTAs running
GPGPU-Sim uArch: core:  0, cta: 4 initialized @(231310,341585)
GPGPU-Sim uArch: Shader 8 finished CTA #4 (232398,341585), 5 CTAs running
GPGPU-Sim uArch: core:  8, cta: 4 initialized @(232399,341585)
GPGPU-Sim uArch: Shader 11 finished CTA #4 (232629,341585), 5 CTAs running
GPGPU-Sim uArch: core: 11, cta: 4 initialized @(232630,341585)
GPGPU-Sim uArch: cycles simulated: 574585  inst.: 11574193 (ipc=15.6) sim_rate=39502 (inst/sec) elapsed = 0:0:04:53 / Sun Feb 28 21:41:29 2016
GPGPU-Sim uArch: Shader 7 finished CTA #4 (233286,341585), 5 CTAs running
GPGPU-Sim uArch: core:  7, cta: 4 initialized @(233287,341585)
GPGPU-Sim uArch: Shader 5 finished CTA #4 (233408,341585), 5 CTAs running
GPGPU-Sim uArch: core:  5, cta: 4 initialized @(233409,341585)
GPGPU-Sim uArch: Shader 6 finished CTA #4 (234318,341585), 5 CTAs running
GPGPU-Sim uArch: core:  6, cta: 4 initialized @(234319,341585)
GPGPU-Sim uArch: cycles simulated: 576085  inst.: 11606269 (ipc=15.6) sim_rate=39477 (inst/sec) elapsed = 0:0:04:54 / Sun Feb 28 21:41:30 2016
GPGPU-Sim uArch: Shader 10 finished CTA #4 (235373,341585), 5 CTAs running
GPGPU-Sim uArch: core: 10, cta: 4 initialized @(235374,341585)
GPGPU-Sim PTX: 12300000 instructions simulated : ctaid=(158,0,0) tid=(215,0,0)
GPGPU-Sim uArch: Shader 4 finished CTA #4 (235744,341585), 5 CTAs running
GPGPU-Sim uArch: core:  4, cta: 4 initialized @(235745,341585)
GPGPU-Sim uArch: cycles simulated: 577585  inst.: 11634950 (ipc=15.6) sim_rate=39440 (inst/sec) elapsed = 0:0:04:55 / Sun Feb 28 21:41:31 2016
GPGPU-Sim uArch: cycles simulated: 579585  inst.: 11665776 (ipc=15.6) sim_rate=39411 (inst/sec) elapsed = 0:0:04:56 / Sun Feb 28 21:41:32 2016
GPGPU-Sim uArch: cycles simulated: 581085  inst.: 11685060 (ipc=15.6) sim_rate=39343 (inst/sec) elapsed = 0:0:04:57 / Sun Feb 28 21:41:33 2016
GPGPU-Sim uArch: Shader 12 finished CTA #4 (239548,341585), 5 CTAs running
GPGPU-Sim uArch: core: 12, cta: 4 initialized @(239549,341585)
GPGPU-Sim uArch: cycles simulated: 583085  inst.: 11711806 (ipc=15.6) sim_rate=39301 (inst/sec) elapsed = 0:0:04:58 / Sun Feb 28 21:41:34 2016
GPGPU-Sim PTX: 12400000 instructions simulated : ctaid=(153,0,0) tid=(159,0,0)
GPGPU-Sim uArch: cycles simulated: 585085  inst.: 11737814 (ipc=15.6) sim_rate=39256 (inst/sec) elapsed = 0:0:04:59 / Sun Feb 28 21:41:35 2016
GPGPU-Sim uArch: Shader 3 finished CTA #5 (243619,341585), 5 CTAs running
GPGPU-Sim uArch: core:  3, cta: 5 initialized @(243620,341585)
GPGPU-Sim uArch: cycles simulated: 586585  inst.: 11758636 (ipc=15.6) sim_rate=39195 (inst/sec) elapsed = 0:0:05:00 / Sun Feb 28 21:41:36 2016
GPGPU-Sim uArch: Shader 8 finished CTA #5 (246978,341585), 5 CTAs running
GPGPU-Sim uArch: core:  8, cta: 5 initialized @(246979,341585)
GPGPU-Sim uArch: cycles simulated: 588585  inst.: 11785281 (ipc=15.5) sim_rate=39153 (inst/sec) elapsed = 0:0:05:01 / Sun Feb 28 21:41:37 2016
GPGPU-Sim uArch: cycles simulated: 590585  inst.: 11813266 (ipc=15.5) sim_rate=39116 (inst/sec) elapsed = 0:0:05:02 / Sun Feb 28 21:41:38 2016
GPGPU-Sim PTX: 12500000 instructions simulated : ctaid=(163,0,0) tid=(90,0,0)
GPGPU-Sim uArch: Shader 9 finished CTA #5 (249651,341585), 5 CTAs running
GPGPU-Sim uArch: core:  9, cta: 5 initialized @(249652,341585)
GPGPU-Sim uArch: Shader 7 finished CTA #5 (250043,341585), 5 CTAs running
GPGPU-Sim uArch: core:  7, cta: 5 initialized @(250044,341585)
GPGPU-Sim uArch: cycles simulated: 592085  inst.: 11836832 (ipc=15.5) sim_rate=39065 (inst/sec) elapsed = 0:0:05:03 / Sun Feb 28 21:41:39 2016
GPGPU-Sim uArch: Shader 12 finished CTA #5 (251780,341585), 5 CTAs running
GPGPU-Sim uArch: core: 12, cta: 5 initialized @(251781,341585)
GPGPU-Sim uArch: cycles simulated: 594085  inst.: 11873853 (ipc=15.5) sim_rate=39058 (inst/sec) elapsed = 0:0:05:04 / Sun Feb 28 21:41:40 2016
GPGPU-Sim uArch: Shader 14 finished CTA #5 (252551,341585), 5 CTAs running
GPGPU-Sim uArch: core: 14, cta: 5 initialized @(252552,341585)
GPGPU-Sim uArch: Shader 0 finished CTA #5 (253112,341585), 5 CTAs running
GPGPU-Sim uArch: core:  0, cta: 5 initialized @(253113,341585)
GPGPU-Sim uArch: cycles simulated: 595585  inst.: 11896314 (ipc=15.5) sim_rate=39004 (inst/sec) elapsed = 0:0:05:05 / Sun Feb 28 21:41:41 2016
GPGPU-Sim uArch: Shader 11 finished CTA #5 (254167,341585), 5 CTAs running
GPGPU-Sim uArch: core: 11, cta: 5 initialized @(254168,341585)
GPGPU-Sim uArch: Shader 1 finished CTA #5 (254210,341585), 5 CTAs running
GPGPU-Sim uArch: core:  1, cta: 5 initialized @(254211,341585)
GPGPU-Sim PTX: 12600000 instructions simulated : ctaid=(94,0,0) tid=(179,0,0)
GPGPU-Sim uArch: cycles simulated: 597085  inst.: 11919865 (ipc=15.5) sim_rate=38953 (inst/sec) elapsed = 0:0:05:06 / Sun Feb 28 21:41:42 2016
GPGPU-Sim uArch: Shader 6 finished CTA #5 (256224,341585), 5 CTAs running
GPGPU-Sim uArch: core:  6, cta: 5 initialized @(256225,341585)
GPGPU-Sim uArch: Shader 2 finished CTA #5 (256973,341585), 5 CTAs running
GPGPU-Sim uArch: core:  2, cta: 5 initialized @(256974,341585)
GPGPU-Sim uArch: cycles simulated: 598585  inst.: 11944622 (ipc=15.6) sim_rate=38907 (inst/sec) elapsed = 0:0:05:07 / Sun Feb 28 21:41:43 2016
GPGPU-Sim uArch: Shader 13 finished CTA #5 (257177,341585), 5 CTAs running
GPGPU-Sim uArch: core: 13, cta: 5 initialized @(257178,341585)
GPGPU-Sim uArch: Shader 4 finished CTA #5 (257410,341585), 5 CTAs running
GPGPU-Sim uArch: core:  4, cta: 5 initialized @(257411,341585)
GPGPU-Sim uArch: cycles simulated: 600585  inst.: 11974386 (ipc=15.5) sim_rate=38877 (inst/sec) elapsed = 0:0:05:08 / Sun Feb 28 21:41:44 2016
GPGPU-Sim uArch: Shader 5 finished CTA #5 (259254,341585), 5 CTAs running
GPGPU-Sim uArch: core:  5, cta: 5 initialized @(259255,341585)
GPGPU-Sim uArch: cycles simulated: 602085  inst.: 11995984 (ipc=15.5) sim_rate=38821 (inst/sec) elapsed = 0:0:05:09 / Sun Feb 28 21:41:45 2016
GPGPU-Sim uArch: Shader 10 finished CTA #5 (261312,341585), 5 CTAs running
GPGPU-Sim uArch: core: 10, cta: 5 initialized @(261313,341585)
GPGPU-Sim PTX: 12700000 instructions simulated : ctaid=(170,0,0) tid=(92,0,0)
GPGPU-Sim uArch: cycles simulated: 603585  inst.: 12014760 (ipc=15.5) sim_rate=38757 (inst/sec) elapsed = 0:0:05:10 / Sun Feb 28 21:41:46 2016
GPGPU-Sim uArch: cycles simulated: 605585  inst.: 12040848 (ipc=15.5) sim_rate=38716 (inst/sec) elapsed = 0:0:05:11 / Sun Feb 28 21:41:47 2016
GPGPU-Sim uArch: cycles simulated: 607585  inst.: 12064157 (ipc=15.5) sim_rate=38667 (inst/sec) elapsed = 0:0:05:12 / Sun Feb 28 21:41:48 2016
GPGPU-Sim uArch: cycles simulated: 609085  inst.: 12083352 (ipc=15.5) sim_rate=38604 (inst/sec) elapsed = 0:0:05:13 / Sun Feb 28 21:41:49 2016
GPGPU-Sim uArch: Shader 9 finished CTA #0 (268210,341585), 5 CTAs running
GPGPU-Sim uArch: core:  9, cta: 0 initialized @(268211,341585)
GPGPU-Sim PTX: 12800000 instructions simulated : ctaid=(125,0,0) tid=(112,0,0)
GPGPU-Sim uArch: cycles simulated: 611085  inst.: 12108916 (ipc=15.4) sim_rate=38563 (inst/sec) elapsed = 0:0:05:14 / Sun Feb 28 21:41:50 2016
GPGPU-Sim uArch: Shader 14 finished CTA #0 (269563,341585), 5 CTAs running
GPGPU-Sim uArch: core: 14, cta: 0 initialized @(269564,341585)
GPGPU-Sim uArch: Shader 7 finished CTA #0 (270269,341585), 5 CTAs running
GPGPU-Sim uArch: core:  7, cta: 0 initialized @(270270,341585)
GPGPU-Sim uArch: cycles simulated: 612585  inst.: 12131451 (ipc=15.4) sim_rate=38512 (inst/sec) elapsed = 0:0:05:15 / Sun Feb 28 21:41:51 2016
GPGPU-Sim uArch: Shader 0 finished CTA #0 (271125,341585), 5 CTAs running
GPGPU-Sim uArch: core:  0, cta: 0 initialized @(271126,341585)
GPGPU-Sim uArch: Shader 2 finished CTA #0 (271453,341585), 5 CTAs running
GPGPU-Sim uArch: core:  2, cta: 0 initialized @(271454,341585)
GPGPU-Sim uArch: Shader 4 finished CTA #0 (272595,341585), 5 CTAs running
GPGPU-Sim uArch: core:  4, cta: 0 initialized @(272596,341585)
GPGPU-Sim uArch: cycles simulated: 614585  inst.: 12168821 (ipc=15.5) sim_rate=38508 (inst/sec) elapsed = 0:0:05:16 / Sun Feb 28 21:41:52 2016
GPGPU-Sim uArch: cycles simulated: 616085  inst.: 12194328 (ipc=15.5) sim_rate=38467 (inst/sec) elapsed = 0:0:05:17 / Sun Feb 28 21:41:53 2016
GPGPU-Sim uArch: Shader 8 finished CTA #0 (274743,341585), 5 CTAs running
GPGPU-Sim uArch: core:  8, cta: 0 initialized @(274744,341585)
GPGPU-Sim PTX: 12900000 instructions simulated : ctaid=(186,0,0) tid=(23,0,0)
GPGPU-Sim uArch: Shader 6 finished CTA #0 (275296,341585), 5 CTAs running
GPGPU-Sim uArch: core:  6, cta: 0 initialized @(275297,341585)
GPGPU-Sim uArch: Shader 3 finished CTA #0 (275566,341585), 5 CTAs running
GPGPU-Sim uArch: core:  3, cta: 0 initialized @(275567,341585)
GPGPU-Sim uArch: cycles simulated: 617585  inst.: 12218124 (ipc=15.5) sim_rate=38421 (inst/sec) elapsed = 0:0:05:18 / Sun Feb 28 21:41:54 2016
GPGPU-Sim uArch: cycles simulated: 619585  inst.: 12243599 (ipc=15.5) sim_rate=38381 (inst/sec) elapsed = 0:0:05:19 / Sun Feb 28 21:41:55 2016
GPGPU-Sim uArch: Shader 11 finished CTA #0 (278506,341585), 5 CTAs running
GPGPU-Sim uArch: core: 11, cta: 0 initialized @(278507,341585)
GPGPU-Sim uArch: Shader 13 finished CTA #0 (279470,341585), 5 CTAs running
GPGPU-Sim uArch: core: 13, cta: 0 initialized @(279471,341585)
GPGPU-Sim uArch: cycles simulated: 621085  inst.: 12263526 (ipc=15.4) sim_rate=38323 (inst/sec) elapsed = 0:0:05:20 / Sun Feb 28 21:41:56 2016
GPGPU-Sim uArch: cycles simulated: 622585  inst.: 12283355 (ipc=15.4) sim_rate=38265 (inst/sec) elapsed = 0:0:05:21 / Sun Feb 28 21:41:57 2016
GPGPU-Sim uArch: Shader 14 finished CTA #1 (281739,341585), 5 CTAs running
GPGPU-Sim uArch: core: 14, cta: 1 initialized @(281740,341585)
GPGPU-Sim PTX: 13000000 instructions simulated : ctaid=(179,0,0) tid=(202,0,0)
GPGPU-Sim uArch: cycles simulated: 624585  inst.: 12305482 (ipc=15.4) sim_rate=38215 (inst/sec) elapsed = 0:0:05:22 / Sun Feb 28 21:41:58 2016
GPGPU-Sim uArch: Shader 5 finished CTA #0 (284454,341585), 5 CTAs running
GPGPU-Sim uArch: core:  5, cta: 0 initialized @(284455,341585)
GPGPU-Sim uArch: cycles simulated: 626085  inst.: 12327391 (ipc=15.4) sim_rate=38165 (inst/sec) elapsed = 0:0:05:23 / Sun Feb 28 21:41:59 2016
GPGPU-Sim uArch: Shader 10 finished CTA #0 (285305,341585), 5 CTAs running
GPGPU-Sim uArch: core: 10, cta: 0 initialized @(285306,341585)
GPGPU-Sim uArch: cycles simulated: 628085  inst.: 12351252 (ipc=15.4) sim_rate=38121 (inst/sec) elapsed = 0:0:05:24 / Sun Feb 28 21:42:00 2016
GPGPU-Sim uArch: Shader 12 finished CTA #0 (287586,341585), 5 CTAs running
GPGPU-Sim uArch: core: 12, cta: 0 initialized @(287587,341585)
GPGPU-Sim uArch: cycles simulated: 629585  inst.: 12372252 (ipc=15.4) sim_rate=38068 (inst/sec) elapsed = 0:0:05:25 / Sun Feb 28 21:42:01 2016
GPGPU-Sim uArch: Shader 1 finished CTA #0 (289085,341585), 5 CTAs running
GPGPU-Sim uArch: core:  1, cta: 0 initialized @(289086,341585)
GPGPU-Sim PTX: 13100000 instructions simulated : ctaid=(135,0,0) tid=(43,0,0)
GPGPU-Sim uArch: cycles simulated: 631585  inst.: 12397361 (ipc=15.3) sim_rate=38028 (inst/sec) elapsed = 0:0:05:26 / Sun Feb 28 21:42:02 2016
GPGPU-Sim uArch: Shader 0 finished CTA #1 (290109,341585), 5 CTAs running
GPGPU-Sim uArch: core:  0, cta: 1 initialized @(290110,341585)
GPGPU-Sim uArch: Shader 12 finished CTA #1 (290794,341585), 5 CTAs running
GPGPU-Sim uArch: core: 12, cta: 1 initialized @(290795,341585)
GPGPU-Sim uArch: cycles simulated: 633085  inst.: 12422038 (ipc=15.3) sim_rate=37987 (inst/sec) elapsed = 0:0:05:27 / Sun Feb 28 21:42:03 2016
GPGPU-Sim uArch: cycles simulated: 634585  inst.: 12443109 (ipc=15.3) sim_rate=37936 (inst/sec) elapsed = 0:0:05:28 / Sun Feb 28 21:42:04 2016
GPGPU-Sim uArch: Shader 9 finished CTA #1 (293212,341585), 5 CTAs running
GPGPU-Sim uArch: core:  9, cta: 1 initialized @(293213,341585)
GPGPU-Sim uArch: Shader 8 finished CTA #1 (293395,341585), 5 CTAs running
GPGPU-Sim uArch: core:  8, cta: 1 initialized @(293396,341585)
GPGPU-Sim uArch: Shader 5 finished CTA #1 (293400,341585), 5 CTAs running
GPGPU-Sim uArch: core:  5, cta: 1 initialized @(293401,341585)
GPGPU-Sim uArch: Shader 4 finished CTA #1 (294136,341585), 5 CTAs running
GPGPU-Sim uArch: core:  4, cta: 1 initialized @(294137,341585)
GPGPU-Sim uArch: Shader 11 finished CTA #1 (294824,341585), 5 CTAs running
GPGPU-Sim uArch: core: 11, cta: 1 initialized @(294825,341585)
GPGPU-Sim uArch: cycles simulated: 636585  inst.: 12476192 (ipc=15.4) sim_rate=37921 (inst/sec) elapsed = 0:0:05:29 / Sun Feb 28 21:42:05 2016
GPGPU-Sim PTX: 13200000 instructions simulated : ctaid=(189,0,0) tid=(92,0,0)
GPGPU-Sim uArch: cycles simulated: 638085  inst.: 12496571 (ipc=15.3) sim_rate=37868 (inst/sec) elapsed = 0:0:05:30 / Sun Feb 28 21:42:06 2016
GPGPU-Sim uArch: Shader 1 finished CTA #1 (296647,341585), 5 CTAs running
GPGPU-Sim uArch: core:  1, cta: 1 initialized @(296648,341585)
GPGPU-Sim uArch: Shader 3 finished CTA #1 (297480,341585), 5 CTAs running
GPGPU-Sim uArch: core:  3, cta: 1 initialized @(297481,341585)
GPGPU-Sim uArch: Shader 10 finished CTA #1 (297714,341585), 5 CTAs running
GPGPU-Sim uArch: core: 10, cta: 1 initialized @(297715,341585)
GPGPU-Sim uArch: cycles simulated: 640085  inst.: 12521349 (ipc=15.3) sim_rate=37828 (inst/sec) elapsed = 0:0:05:31 / Sun Feb 28 21:42:07 2016
GPGPU-Sim uArch: Shader 7 finished CTA #1 (298991,341585), 5 CTAs running
GPGPU-Sim uArch: core:  7, cta: 1 initialized @(298992,341585)
GPGPU-Sim uArch: Shader 2 finished CTA #1 (299757,341585), 5 CTAs running
GPGPU-Sim uArch: core:  2, cta: 1 initialized @(299758,341585)
GPGPU-Sim uArch: cycles simulated: 641585  inst.: 12542813 (ipc=15.3) sim_rate=37779 (inst/sec) elapsed = 0:0:05:32 / Sun Feb 28 21:42:08 2016
GPGPU-Sim uArch: Shader 6 finished CTA #1 (301080,341585), 5 CTAs running
GPGPU-Sim uArch: core:  6, cta: 1 initialized @(301081,341585)
GPGPU-Sim uArch: cycles simulated: 643085  inst.: 12561086 (ipc=15.3) sim_rate=37720 (inst/sec) elapsed = 0:0:05:33 / Sun Feb 28 21:42:09 2016
GPGPU-Sim uArch: Shader 14 finished CTA #2 (302187,341585), 5 CTAs running
GPGPU-Sim uArch: core: 14, cta: 2 initialized @(302188,341585)
GPGPU-Sim PTX: 13300000 instructions simulated : ctaid=(190,0,0) tid=(5,0,0)
GPGPU-Sim uArch: cycles simulated: 645085  inst.: 12585762 (ipc=15.3) sim_rate=37681 (inst/sec) elapsed = 0:0:05:34 / Sun Feb 28 21:42:10 2016
GPGPU-Sim uArch: cycles simulated: 646585  inst.: 12608154 (ipc=15.3) sim_rate=37636 (inst/sec) elapsed = 0:0:05:35 / Sun Feb 28 21:42:11 2016
GPGPU-Sim uArch: cycles simulated: 648085  inst.: 12623420 (ipc=15.3) sim_rate=37569 (inst/sec) elapsed = 0:0:05:36 / Sun Feb 28 21:42:12 2016
GPGPU-Sim uArch: cycles simulated: 649585  inst.: 12640147 (ipc=15.2) sim_rate=37507 (inst/sec) elapsed = 0:0:05:37 / Sun Feb 28 21:42:13 2016
GPGPU-Sim uArch: cycles simulated: 651585  inst.: 12661033 (ipc=15.2) sim_rate=37458 (inst/sec) elapsed = 0:0:05:38 / Sun Feb 28 21:42:14 2016
GPGPU-Sim uArch: Shader 2 finished CTA #2 (310702,341585), 5 CTAs running
GPGPU-Sim uArch: core:  2, cta: 2 initialized @(310703,341585)
GPGPU-Sim uArch: Shader 5 finished CTA #2 (310917,341585), 5 CTAs running
GPGPU-Sim uArch: core:  5, cta: 2 initialized @(310918,341585)
GPGPU-Sim uArch: Shader 8 finished CTA #2 (311251,341585), 5 CTAs running
GPGPU-Sim uArch: core:  8, cta: 2 initialized @(311252,341585)
GPGPU-Sim PTX: 13400000 instructions simulated : ctaid=(210,0,0) tid=(16,0,0)
GPGPU-Sim uArch: cycles simulated: 653585  inst.: 12686074 (ipc=15.2) sim_rate=37422 (inst/sec) elapsed = 0:0:05:39 / Sun Feb 28 21:42:15 2016
GPGPU-Sim uArch: Shader 4 finished CTA #2 (312151,341585), 5 CTAs running
GPGPU-Sim uArch: core:  4, cta: 2 initialized @(312152,341585)
GPGPU-Sim uArch: Shader 13 finished CTA #1 (312667,341585), 5 CTAs running
GPGPU-Sim uArch: core: 13, cta: 1 initialized @(312668,341585)
GPGPU-Sim uArch: Shader 9 finished CTA #2 (312836,341585), 5 CTAs running
GPGPU-Sim uArch: core:  9, cta: 2 initialized @(312837,341585)
GPGPU-Sim uArch: cycles simulated: 655085  inst.: 12710950 (ipc=15.2) sim_rate=37385 (inst/sec) elapsed = 0:0:05:40 / Sun Feb 28 21:42:16 2016
GPGPU-Sim uArch: Shader 7 finished CTA #2 (314526,341585), 5 CTAs running
GPGPU-Sim uArch: core:  7, cta: 2 initialized @(314527,341585)
GPGPU-Sim uArch: cycles simulated: 657085  inst.: 12741106 (ipc=15.2) sim_rate=37363 (inst/sec) elapsed = 0:0:05:41 / Sun Feb 28 21:42:17 2016
GPGPU-Sim uArch: Shader 12 finished CTA #2 (316572,341585), 5 CTAs running
GPGPU-Sim uArch: core: 12, cta: 2 initialized @(316573,341585)
GPGPU-Sim uArch: Shader 11 finished CTA #2 (316879,341585), 5 CTAs running
GPGPU-Sim uArch: core: 11, cta: 2 initialized @(316880,341585)
GPGPU-Sim uArch: cycles simulated: 658585  inst.: 12757441 (ipc=15.2) sim_rate=37302 (inst/sec) elapsed = 0:0:05:42 / Sun Feb 28 21:42:18 2016
GPGPU-Sim uArch: Shader 13 finished CTA #2 (317961,341585), 5 CTAs running
GPGPU-Sim uArch: core: 13, cta: 2 initialized @(317962,341585)
GPGPU-Sim PTX: 13500000 instructions simulated : ctaid=(136,0,0) tid=(238,0,0)
GPGPU-Sim uArch: cycles simulated: 660085  inst.: 12777546 (ipc=15.2) sim_rate=37252 (inst/sec) elapsed = 0:0:05:43 / Sun Feb 28 21:42:19 2016
GPGPU-Sim uArch: Shader 0 finished CTA #2 (318576,341585), 5 CTAs running
GPGPU-Sim uArch: core:  0, cta: 2 initialized @(318577,341585)
GPGPU-Sim uArch: Shader 1 finished CTA #2 (318950,341585), 5 CTAs running
GPGPU-Sim uArch: core:  1, cta: 2 initialized @(318951,341585)
GPGPU-Sim uArch: Shader 3 finished CTA #2 (319264,341585), 5 CTAs running
GPGPU-Sim uArch: core:  3, cta: 2 initialized @(319265,341585)
GPGPU-Sim uArch: Shader 10 finished CTA #2 (319591,341585), 5 CTAs running
GPGPU-Sim uArch: core: 10, cta: 2 initialized @(319592,341585)
GPGPU-Sim uArch: Shader 6 finished CTA #2 (319641,341585), 5 CTAs running
GPGPU-Sim uArch: core:  6, cta: 2 initialized @(319642,341585)
GPGPU-Sim uArch: Shader 14 finished CTA #3 (320007,341585), 5 CTAs running
GPGPU-Sim uArch: core: 14, cta: 3 initialized @(320008,341585)
GPGPU-Sim uArch: cycles simulated: 662085  inst.: 12813088 (ipc=15.2) sim_rate=37247 (inst/sec) elapsed = 0:0:05:44 / Sun Feb 28 21:42:20 2016
GPGPU-Sim uArch: cycles simulated: 663585  inst.: 12834453 (ipc=15.2) sim_rate=37201 (inst/sec) elapsed = 0:0:05:45 / Sun Feb 28 21:42:21 2016
