

        *** GPGPU-Sim Simulator Version 3.2.2  [build 0] ***


GPGPU-Sim PTX: simulation mode 0 (can change with PTX_SIM_MODE_FUNC environment variable:
               1=functional simulation only, 0=detailed performance simulator)
GPGPU-Sim: Configuration options:

-network_mode                           1 # Interconnection network mode
-inter_config_file   config_fermi_islip.icnt # Interconnection network config file
-gpgpu_ptx_use_cuobjdump                    1 # Use cuobjdump to extract ptx and sass from binaries
-gpgpu_experimental_lib_support                    0 # Try to extract code from cuda libraries [Broken because of unknown cudaGetExportTable]
-gpgpu_ptx_convert_to_ptxplus                    0 # Convert SASS (native ISA) to ptxplus and run ptxplus
-gpgpu_ptx_force_max_capability                   20 # Force maximum compute capability
-gpgpu_ptx_inst_debug_to_file                    0 # Dump executed instructions' debug information to file
-gpgpu_ptx_inst_debug_file       inst_debug.txt # Executed instructions' debug output file
-gpgpu_ptx_inst_debug_thread_uid                    1 # Thread UID for executed instructions' debug output
-gpgpu_simd_model                       1 # 1 = post-dominator
-gpgpu_shader_core_pipeline              1536:32 # shader core pipeline config, i.e., {<nthread>:<warpsize>}
-gpgpu_tex_cache:l1  4:128:24,L:R:m:N:L,F:128:4,128:2 # per-shader L1 texture cache  (READ-ONLY) config  {<nsets>:<bsize>:<assoc>,<rep>:<wr>:<alloc>:<wr_alloc>,<mshr>:<N>:<merge>,<mq>:<rf>}
-gpgpu_const_cache:l1 64:64:2,L:R:f:N:L,A:2:32,4 # per-shader L1 constant memory cache  (READ-ONLY) config  {<nsets>:<bsize>:<assoc>,<rep>:<wr>:<alloc>:<wr_alloc>,<mshr>:<N>:<merge>,<mq>} 
-gpgpu_cache:il1     4:128:4,L:R:f:N:L,A:2:32,4 # shader L1 instruction cache config  {<nsets>:<bsize>:<assoc>,<rep>:<wr>:<alloc>:<wr_alloc>,<mshr>:<N>:<merge>,<mq>} 
-gpgpu_cache:dl1     32:128:4,L:L:m:N:H,A:32:8,8 # per-shader L1 data cache config  {<nsets>:<bsize>:<assoc>,<rep>:<wr>:<alloc>:<wr_alloc>,<mshr>:<N>:<merge>,<mq> | none}
-gpgpu_cache:dl1PrefL1                 none # per-shader L1 data cache config  {<nsets>:<bsize>:<assoc>,<rep>:<wr>:<alloc>:<wr_alloc>,<mshr>:<N>:<merge>,<mq> | none}
-gpgpu_cache:dl1PreShared                 none # per-shader L1 data cache config  {<nsets>:<bsize>:<assoc>,<rep>:<wr>:<alloc>:<wr_alloc>,<mshr>:<N>:<merge>,<mq> | none}
-gmem_skip_L1D                          0 # global memory access skip L1D cache (implements -Xptxas -dlcm=cg, default=no skip)
-gpgpu_perfect_mem                      0 # enable perfect memory mode (no cache miss)
-n_regfile_gating_group                    4 # group of lanes that should be read/written together)
-gpgpu_clock_gated_reg_file                    0 # enable clock gated reg file for power calculations
-gpgpu_clock_gated_lanes                    0 # enable clock gated lanes for power calculations
-gpgpu_shader_registers                32768 # Number of registers per shader core. Limits number of concurrent CTAs. (default 8192)
-gpgpu_shader_cta                       8 # Maximum number of concurrent CTAs in shader (default 8)
-gpgpu_num_cta_barriers                   16 # Maximum number of named barriers per CTA (default 16)
-gpgpu_n_clusters                      15 # number of processing clusters
-gpgpu_n_cores_per_cluster                    1 # number of simd cores per cluster
-gpgpu_n_cluster_ejection_buffer_size                    8 # number of packets in ejection buffer
-gpgpu_n_ldst_response_buffer_size                    2 # number of response packets in ld/st unit ejection buffer
-gpgpu_shmem_size                   16384 # Size of shared memory per shader core (default 16kB)
-gpgpu_shmem_size                   49152 # Size of shared memory per shader core (default 16kB)
-gpgpu_shmem_size_PrefL1                16384 # Size of shared memory per shader core (default 16kB)
-gpgpu_shmem_size_PrefShared                16384 # Size of shared memory per shader core (default 16kB)
-gpgpu_shmem_num_banks                   32 # Number of banks in the shared memory in each shader core (default 16)
-gpgpu_shmem_limited_broadcast                    0 # Limit shared memory to do one broadcast per cycle (default on)
-gpgpu_shmem_warp_parts                    1 # Number of portions a warp is divided into for shared memory bank conflict check 
-gpgpu_warpdistro_shader                   -1 # Specify which shader core to collect the warp size distribution from
-gpgpu_warp_issue_shader                    0 # Specify which shader core to collect the warp issue distribution from
-gpgpu_local_mem_map                    1 # Mapping from local memory space address to simulated GPU physical address space (default = enabled)
-gpgpu_num_reg_banks                   16 # Number of register banks (default = 8)
-gpgpu_reg_bank_use_warp_id                    0 # Use warp ID in mapping registers to banks (default = off)
-gpgpu_operand_collector_num_units_sp                    6 # number of collector units (default = 4)
-gpgpu_operand_collector_num_units_sfu                    8 # number of collector units (default = 4)
-gpgpu_operand_collector_num_units_mem                    2 # number of collector units (default = 2)
-gpgpu_operand_collector_num_units_gen                    0 # number of collector units (default = 0)
-gpgpu_operand_collector_num_in_ports_sp                    2 # number of collector unit in ports (default = 1)
-gpgpu_operand_collector_num_in_ports_sfu                    1 # number of collector unit in ports (default = 1)
-gpgpu_operand_collector_num_in_ports_mem                    1 # number of collector unit in ports (default = 1)
-gpgpu_operand_collector_num_in_ports_gen                    0 # number of collector unit in ports (default = 0)
-gpgpu_operand_collector_num_out_ports_sp                    2 # number of collector unit in ports (default = 1)
-gpgpu_operand_collector_num_out_ports_sfu                    1 # number of collector unit in ports (default = 1)
-gpgpu_operand_collector_num_out_ports_mem                    1 # number of collector unit in ports (default = 1)
-gpgpu_operand_collector_num_out_ports_gen                    0 # number of collector unit in ports (default = 0)
-gpgpu_coalesce_arch                   13 # Coalescing arch (default = 13, anything else is off for now)
-gpgpu_num_sched_per_core                    2 # Number of warp schedulers per core
-gpgpu_max_insn_issue_per_warp                    1 # Max number of instructions that can be issued per warp in one cycle by scheduler
-gpgpu_simt_core_sim_order                    1 # Select the simulation order of cores in a cluster (0=Fix, 1=Round-Robin)
-gpgpu_pipeline_widths        2,1,1,2,1,1,2 # Pipeline widths ID_OC_SP,ID_OC_SFU,ID_OC_MEM,OC_EX_SP,OC_EX_SFU,OC_EX_MEM,EX_WB
-gpgpu_num_sp_units                     2 # Number of SP units (default=1)
-gpgpu_num_sfu_units                    1 # Number of SF units (default=1)
-gpgpu_num_mem_units                    1 # Number if ldst units (default=1) WARNING: not hooked up to anything
-gpgpu_scheduler                      gto # Scheduler configuration: < lrr | gto | two_level_active > If two_level_active:<num_active_warps>:<inner_prioritization>:<outer_prioritization>For complete list of prioritization values see shader.h enum scheduler_prioritization_typeDefault: gto
-gpgpu_dram_scheduler                    1 # 0 = fifo, 1 = FR-FCFS (defaul)
-gpgpu_dram_partition_queues              8:8:8:8 # i2$:$2d:d2$:$2i
-l2_ideal                               0 # Use a ideal L2 cache that always hit
-gpgpu_cache:dl2     64:128:8,L:B:m:W:L,A:32:4,4:0,32 # unified banked L2 data cache config  {<nsets>:<bsize>:<assoc>,<rep>:<wr>:<alloc>:<wr_alloc>,<mshr>:<N>:<merge>,<mq>}
-gpgpu_cache:dl2_texture_only                    0 # L2 cache used for texture only
-gpgpu_n_mem                            6 # number of memory modules (e.g. memory controllers) in gpu
-gpgpu_n_sub_partition_per_mchannel                    2 # number of memory subpartition in each memory module
-gpgpu_n_mem_per_ctrlr                    2 # number of memory chips per memory controller
-gpgpu_memlatency_stat                   14 # track and display latency statistics 0x2 enables MC, 0x4 enables queue logs
-gpgpu_frfcfs_dram_sched_queue_size                   16 # 0 = unlimited (default); # entries per chip
-gpgpu_dram_return_queue_size                  116 # 0 = unlimited (default); # entries per chip
-gpgpu_dram_buswidth                    4 # default = 4 bytes (8 bytes per cycle at DDR)
-gpgpu_dram_burst_length                    4 # Burst length of each DRAM request (default = 4 data bus cycle)
-dram_data_command_freq_ratio                    4 # Frequency ratio between DRAM data bus and command bus (default = 2 times, i.e. DDR)
-gpgpu_dram_timing_opt nbk=16:CCD=2:RRD=6:RCD=12:RAS=28:RP=12:RC=40: CL=12:WL=4:CDLR=5:WR=12:nbkgrp=4:CCDL=3:RTPL=2 # DRAM timing parameters = {nbk:tCCD:tRRD:tRCD:tRAS:tRP:tRC:CL:WL:tCDLR:tWR:nbkgrp:tCCDL:tRTPL}
-rop_latency                          120 # ROP queue latency (default 85)
-dram_latency                         100 # DRAM latency (default 30)
-gpgpu_mem_addr_mapping dramid@8;00000000.00000000.00000000.00000000.0000RRRR.RRRRRRRR.BBBCCCCB.CCSSSSSS # mapping memory address to dram model {dramid@<start bit>;<memory address map>}
-gpgpu_mem_addr_test                    0 # run sweep test to check address mapping for aliased address
-gpgpu_mem_address_mask                    1 # 0 = old addressing mask, 1 = new addressing mask, 2 = new add. mask + flipped bank sel and chip sel bits
-gpuwattch_xml_file  gpuwattch_gtx480.xml # GPUWattch XML file
-power_simulation_enabled                    0 # Turn on power simulator (1=On, 0=Off)
-power_per_cycle_dump                    0 # Dump detailed power output each cycle
-power_trace_enabled                    0 # produce a file for the power trace (1=On, 0=Off)
-power_trace_zlevel                     6 # Compression level of the power trace output log (0=no comp, 9=highest)
-steady_power_levels_enabled                    0 # produce a file for the steady power levels (1=On, 0=Off)
-steady_state_definition                  8:4 # allowed deviation:number of samples
-gpgpu_max_cycle                        0 # terminates gpu simulation early (0 = no limit)
-gpgpu_max_insn                         0 # terminates gpu simulation early (0 = no limit)
-gpgpu_max_cta                          0 # terminates gpu simulation early (0 = no limit)
-gpgpu_runtime_stat                   500 # display runtime statistics such as dram utilization {<freq>:<flag>}
-liveness_message_freq                    1 # Minimum number of seconds between simulation liveness messages (0 = always print)
-gpgpu_flush_l1_cache                    0 # Flush L1 cache at the end of each kernel call
-gpgpu_flush_l2_cache                    0 # Flush L2 cache at the end of each kernel call
-gpgpu_deadlock_detect                    1 # Stop the simulation at deadlock (1=on (default), 0=off)
-gpgpu_ptx_instruction_classification                    0 # if enabled will classify ptx instruction types per kernel (Max 255 kernels now)
-gpgpu_ptx_sim_mode                     0 # Select between Performance (default) or Functional simulation (1)
-gpgpu_clock_domains 700.0:700.0:700.0:924.0 # Clock Domain Frequencies in MhZ {<Core Clock>:<ICNT Clock>:<L2 Clock>:<DRAM Clock>}
-gpgpu_max_concurrent_kernel                    8 # maximum kernels that can run concurrently on GPU
-gpgpu_cflog_interval                    0 # Interval between each snapshot in control flow logger
-visualizer_enabled                     0 # Turn on visualizer output (1=On, 0=Off)
-visualizer_outputfile                 NULL # Specifies the output log file for visualizer
-visualizer_zlevel                      6 # Compression level of the visualizer output log (0=no comp, 9=highest)
-trace_enabled                          0 # Turn on traces
-trace_components                    none # comma seperated list of traces to enable. Complete list found in trace_streams.tup. Default none
-trace_sampling_core                    0 # The core which is printed using CORE_DPRINTF. Default 0
-trace_sampling_memory_partition                   -1 # The memory partition which is printed using MEMPART_DPRINTF. Default -1 (i.e. all)
-enable_ptx_file_line_stats                    1 # Turn on PTX source line statistic profiling. (1 = On)
-ptx_line_stats_filename gpgpu_inst_stats.txt # Output file for PTX source line statistics.
-save_embedded_ptx                      0 # saves ptx files embedded in binary as <n>.ptx
-keep                                   0 # keep intermediate files created by GPGPU-Sim when interfacing with external programs
-gpgpu_ptx_save_converted_ptxplus                    0 # Saved converted ptxplus to a file
-ptx_opcode_latency_int         4,13,4,5,145 # Opcode latencies for integers <ADD,MAX,MUL,MAD,DIV>Default 1,1,19,25,145
-ptx_opcode_latency_fp          4,13,4,5,39 # Opcode latencies for single precision floating points <ADD,MAX,MUL,MAD,DIV>Default 1,1,1,1,30
-ptx_opcode_latency_dp         8,19,8,8,330 # Opcode latencies for double precision floating points <ADD,MAX,MUL,MAD,DIV>Default 8,8,8,8,335
-ptx_opcode_initiation_int            1,2,2,1,8 # Opcode initiation intervals for integers <ADD,MAX,MUL,MAD,DIV>Default 1,1,4,4,32
-ptx_opcode_initiation_fp            1,2,1,1,4 # Opcode initiation intervals for single precision floating points <ADD,MAX,MUL,MAD,DIV>Default 1,1,1,1,5
-ptx_opcode_initiation_dp         8,16,8,8,130 # Opcode initiation intervals for double precision floating points <ADD,MAX,MUL,MAD,DIV>Default 8,8,8,8,130
DRAM Timing Options:
nbk                                    16 # number of banks
CCD                                     2 # column to column delay
RRD                                     6 # minimal delay between activation of rows in different banks
RCD                                    12 # row to column delay
RAS                                    28 # time needed to activate row
RP                                     12 # time needed to precharge (deactivate) row
RC                                     40 # row cycle time
CDLR                                    5 # switching from write to read (changes tWTR)
WR                                     12 # last data-in to row precharge
CL                                     12 # CAS latency
WL                                      4 # Write latency
nbkgrp                                  4 # number of bank groups
CCDL                                    3 # column to column delay between accesses to different bank groups
RTPL                                    2 # read to precharge delay between accesses to different bank groups
Total number of memory sub partition = 12
addr_dec_mask[CHIP]  = 0000000000000000 	high:64 low:0
addr_dec_mask[BK]    = 000000000000e100 	high:16 low:8
addr_dec_mask[ROW]   = 000000000fff0000 	high:28 low:16
addr_dec_mask[COL]   = 0000000000001eff 	high:13 low:0
addr_dec_mask[BURST] = 000000000000003f 	high:6 low:0
sub_partition_id_mask = 0000000000000100
GPGPU-Sim uArch: clock freqs: 700000000.000000:700000000.000000:700000000.000000:924000000.000000
GPGPU-Sim uArch: clock periods: 0.00000000142857142857:0.00000000142857142857:0.00000000142857142857:0.00000000108225108225
*** Initializing Memory Statistics ***
GPGPU-Sim uArch: interconnect node map (shaderID+MemID to icntID)
GPGPU-Sim uArch: Memory nodes ID start from index: 15
GPGPU-Sim uArch:    0   1   2   3   4
GPGPU-Sim uArch:    5   6   7   8   9
GPGPU-Sim uArch:   10  11  12  13  14
GPGPU-Sim uArch:   15  16  17  18  19
GPGPU-Sim uArch:   20  21  22  23  24
GPGPU-Sim uArch:   25  26
GPGPU-Sim uArch: interconnect node reverse map (icntID to shaderID+MemID)
GPGPU-Sim uArch: Memory nodes start from ID: 15
GPGPU-Sim uArch:    0   1   2   3   4
GPGPU-Sim uArch:    5   6   7   8   9
GPGPU-Sim uArch:   10  11  12  13  14
GPGPU-Sim uArch:   15  16  17  18  19
GPGPU-Sim uArch:   20  21  22  23  24
GPGPU-Sim uArch:   25  26
e389dacb331e7fcddf4abf4a164344f1  /sciclone/data20/adwait/applications/benchmarks/CUDA/BlackScholes/gpgpu_ptx_sim__BlackScholes
GPGPU-Sim uArch: performance model initialization complete.
GPGPU-Sim PTX: __cudaRegisterFatBinary, fat_cubin_handle = 1, filename=BlackScholes.cu
self exe links to: /sciclone/data20/adwait/applications/benchmarks/CUDA/BlackScholes/gpgpu_ptx_sim__BlackScholes
Running md5sum using "md5sum /sciclone/data20/adwait/applications/benchmarks/CUDA/BlackScholes/gpgpu_ptx_sim__BlackScholes "
Parsing file _cuobjdump_complete_output_6j9Otf
######### cuobjdump parser ########
## Adding new section ELF
Adding arch: sm_20
Adding identifier: BlackScholes.cu
## Adding new section PTX
Adding ptx filename: _cuobjdump_1.ptx
Adding arch: sm_20
Adding identifier: BlackScholes.cu
Done parsing!!!
GPGPU-Sim PTX: __cudaRegisterFunction _Z15BlackScholesGPUPfS_S_S_S_ffi : hostFun 0x0x405752, fat_cubin_handle = 1
GPGPU-Sim PTX: instruction assembly for function '_Z15BlackScholesGPUPfS_S_S_S_ffi'...   done.
GPGPU-Sim PTX: finding reconvergence points for '_Z15BlackScholesGPUPfS_S_S_S_ffi'...
GPGPU-Sim PTX: Finding dominators for '_Z15BlackScholesGPUPfS_S_S_S_ffi'...
GPGPU-Sim PTX: Finding immediate dominators for '_Z15BlackScholesGPUPfS_S_S_S_ffi'...
GPGPU-Sim PTX: Finding postdominators for '_Z15BlackScholesGPUPfS_S_S_S_ffi'...
GPGPU-Sim PTX: Finding immediate postdominators for '_Z15BlackScholesGPUPfS_S_S_S_ffi'...
GPGPU-Sim PTX: pre-decoding instructions for '_Z15BlackScholesGPUPfS_S_S_S_ffi'...
GPGPU-Sim PTX: reconvergence points for _Z15BlackScholesGPUPfS_S_S_S_ffi...
GPGPU-Sim PTX:  1 (potential) branch divergence @  PC=0x040 (_1.ptx:76) @%p1 bra $Lt_0_2818;
GPGPU-Sim PTX:    immediate post dominator      @  PC=0x3f8 (_1.ptx:200) exit;
GPGPU-Sim PTX:  2 (potential) branch divergence @  PC=0x3f0 (_1.ptx:197) @%p4 bra $Lt_0_3330;
GPGPU-Sim PTX:    immediate post dominator      @  PC=0x3f8 (_1.ptx:200) exit;
GPGPU-Sim PTX: ... end of reconvergence points for _Z15BlackScholesGPUPfS_S_S_S_ffi
GPGPU-Sim PTX: ... done pre-decoding instructions for '_Z15BlackScholesGPUPfS_S_S_S_ffi'.
GPGPU-Sim PTX: finished parsing EMBEDDED .ptx file _1.ptx
Adding _cuobjdump_1.ptx with cubin handle 1
GPGPU-Sim PTX: extracting embedded .ptx to temporary file "_ptx_N1hshu"
Running: cat _ptx_N1hshu | sed 's/.version 1.5/.version 1.4/' | sed 's/, texmode_independent//' | sed 's/\(\.extern \.const\[1\] .b8 \w\+\)\[\]/\1\[1\]/' | sed 's/const\[.\]/const\[0\]/g' > _ptx2_ISaeBJ
GPGPU-Sim PTX: generating ptxinfo using "$CUDA_INSTALL_PATH/bin/ptxas --gpu-name=sm_20 -v _ptx2_ISaeBJ --output-file  /dev/null 2> _ptx_N1hshuinfo"
GPGPU-Sim PTX: Kernel '_Z15BlackScholesGPUPfS_S_S_S_ffi' : regs=31, lmem=0, smem=0, cmem=128
GPGPU-Sim PTX: removing ptxinfo using "rm -f _ptx_N1hshu _ptx2_ISaeBJ _ptx_N1hshuinfo"
GPGPU-Sim PTX: loading globals with explicit initializers... 
GPGPU-Sim PTX: finished loading globals (0 bytes total).
GPGPU-Sim PTX: loading constants with explicit initializers...  done.
Initializing data...
...allocating CPU memory for options.
...allocating GPU memory for options.
...generating input data in CPU mem.
...copying input data to GPU mem.
Data init done.
Executing Black-Scholes GPU kernel (1 iterations)...
GPGPU-Sim: synchronize waiting for inactive GPU simulation
GPGPU-Sim API: Stream Manager State
GPGPU-Sim: detected inactive GPU simulation thread

GPGPU-Sim PTX: cudaLaunch for 0x0x405752 (mode=performance simulation) on stream 0
GPGPU-Sim PTX: pushing kernel '_Z15BlackScholesGPUPfS_S_S_S_ffi' to stream 0, gridDim= (480,1,1) blockDim = (128,1,1) 
kernel '_Z15BlackScholesGPUPfS_S_S_S_ffi' transfer to GPU hardware scheduler
GPGPU-Sim uArch: Shader 1 bind to kernel 1 '_Z15BlackScholesGPUPfS_S_S_S_ffi'
GPGPU-Sim uArch: CTA/core = 8, limited by: regs cta_limit
GPGPU-Sim uArch: core:  1, cta: 0 initialized @(1,0)
GPGPU-Sim uArch: Shader 2 bind to kernel 1 '_Z15BlackScholesGPUPfS_S_S_S_ffi'
GPGPU-Sim uArch: core:  2, cta: 0 initialized @(1,0)
GPGPU-Sim uArch: Shader 3 bind to kernel 1 '_Z15BlackScholesGPUPfS_S_S_S_ffi'
GPGPU-Sim uArch: core:  3, cta: 0 initialized @(1,0)
GPGPU-Sim uArch: Shader 4 bind to kernel 1 '_Z15BlackScholesGPUPfS_S_S_S_ffi'
GPGPU-Sim uArch: core:  4, cta: 0 initialized @(1,0)
GPGPU-Sim uArch: Shader 5 bind to kernel 1 '_Z15BlackScholesGPUPfS_S_S_S_ffi'
GPGPU-Sim uArch: core:  5, cta: 0 initialized @(1,0)
GPGPU-Sim uArch: Shader 6 bind to kernel 1 '_Z15BlackScholesGPUPfS_S_S_S_ffi'
GPGPU-Sim uArch: core:  6, cta: 0 initialized @(1,0)
GPGPU-Sim uArch: Shader 7 bind to kernel 1 '_Z15BlackScholesGPUPfS_S_S_S_ffi'
GPGPU-Sim uArch: core:  7, cta: 0 initialized @(1,0)
GPGPU-Sim uArch: Shader 8 bind to kernel 1 '_Z15BlackScholesGPUPfS_S_S_S_ffi'
GPGPU-Sim uArch: core:  8, cta: 0 initialized @(1,0)
GPGPU-Sim uArch: Shader 9 bind to kernel 1 '_Z15BlackScholesGPUPfS_S_S_S_ffi'
GPGPU-Sim uArch: core:  9, cta: 0 initialized @(1,0)
GPGPU-Sim uArch: Shader 10 bind to kernel 1 '_Z15BlackScholesGPUPfS_S_S_S_ffi'
GPGPU-Sim uArch: core: 10, cta: 0 initialized @(1,0)
GPGPU-Sim uArch: Shader 11 bind to kernel 1 '_Z15BlackScholesGPUPfS_S_S_S_ffi'
GPGPU-Sim uArch: core: 11, cta: 0 initialized @(1,0)
GPGPU-Sim uArch: Shader 12 bind to kernel 1 '_Z15BlackScholesGPUPfS_S_S_S_ffi'
GPGPU-Sim uArch: core: 12, cta: 0 initialized @(1,0)
GPGPU-Sim uArch: Shader 13 bind to kernel 1 '_Z15BlackScholesGPUPfS_S_S_S_ffi'
GPGPU-Sim uArch: core: 13, cta: 0 initialized @(1,0)
GPGPU-Sim uArch: Shader 14 bind to kernel 1 '_Z15BlackScholesGPUPfS_S_S_S_ffi'
GPGPU-Sim uArch: core: 14, cta: 0 initialized @(1,0)
GPGPU-Sim uArch: Shader 0 bind to kernel 1 '_Z15BlackScholesGPUPfS_S_S_S_ffi'
GPGPU-Sim uArch: core:  0, cta: 0 initialized @(1,0)
GPGPU-Sim uArch: core:  1, cta: 1 initialized @(2,0)
GPGPU-Sim uArch: core:  2, cta: 1 initialized @(2,0)
GPGPU-Sim uArch: core:  3, cta: 1 initialized @(2,0)
GPGPU-Sim uArch: core:  4, cta: 1 initialized @(2,0)
GPGPU-Sim uArch: core:  5, cta: 1 initialized @(2,0)
GPGPU-Sim uArch: core:  6, cta: 1 initialized @(2,0)
GPGPU-Sim uArch: core:  7, cta: 1 initialized @(2,0)
GPGPU-Sim uArch: core:  8, cta: 1 initialized @(2,0)
GPGPU-Sim uArch: core:  9, cta: 1 initialized @(2,0)
GPGPU-Sim uArch: core: 10, cta: 1 initialized @(2,0)
GPGPU-Sim uArch: core: 11, cta: 1 initialized @(2,0)
GPGPU-Sim uArch: core: 12, cta: 1 initialized @(2,0)
GPGPU-Sim uArch: core: 13, cta: 1 initialized @(2,0)
GPGPU-Sim uArch: core: 14, cta: 1 initialized @(2,0)
GPGPU-Sim uArch: core:  0, cta: 1 initialized @(2,0)
GPGPU-Sim uArch: core:  1, cta: 2 initialized @(3,0)
GPGPU-Sim uArch: core:  2, cta: 2 initialized @(3,0)
GPGPU-Sim uArch: core:  3, cta: 2 initialized @(3,0)
GPGPU-Sim uArch: core:  4, cta: 2 initialized @(3,0)
GPGPU-Sim uArch: core:  5, cta: 2 initialized @(3,0)
GPGPU-Sim uArch: core:  6, cta: 2 initialized @(3,0)
GPGPU-Sim uArch: core:  7, cta: 2 initialized @(3,0)
GPGPU-Sim uArch: core:  8, cta: 2 initialized @(3,0)
GPGPU-Sim uArch: core:  9, cta: 2 initialized @(3,0)
GPGPU-Sim uArch: core: 10, cta: 2 initialized @(3,0)
GPGPU-Sim uArch: core: 11, cta: 2 initialized @(3,0)
GPGPU-Sim uArch: core: 12, cta: 2 initialized @(3,0)
GPGPU-Sim uArch: core: 13, cta: 2 initialized @(3,0)
GPGPU-Sim uArch: core: 14, cta: 2 initialized @(3,0)
GPGPU-Sim uArch: core:  0, cta: 2 initialized @(3,0)
GPGPU-Sim uArch: core:  1, cta: 3 initialized @(4,0)
GPGPU-Sim uArch: core:  2, cta: 3 initialized @(4,0)
GPGPU-Sim uArch: core:  3, cta: 3 initialized @(4,0)
GPGPU-Sim uArch: core:  4, cta: 3 initialized @(4,0)
GPGPU-Sim uArch: core:  5, cta: 3 initialized @(4,0)
GPGPU-Sim uArch: core:  6, cta: 3 initialized @(4,0)
GPGPU-Sim uArch: core:  7, cta: 3 initialized @(4,0)
GPGPU-Sim uArch: core:  8, cta: 3 initialized @(4,0)
GPGPU-Sim uArch: core:  9, cta: 3 initialized @(4,0)
GPGPU-Sim uArch: core: 10, cta: 3 initialized @(4,0)
GPGPU-Sim uArch: core: 11, cta: 3 initialized @(4,0)
GPGPU-Sim uArch: core: 12, cta: 3 initialized @(4,0)
GPGPU-Sim uArch: core: 13, cta: 3 initialized @(4,0)
GPGPU-Sim uArch: core: 14, cta: 3 initialized @(4,0)
GPGPU-Sim uArch: core:  0, cta: 3 initialized @(4,0)
GPGPU-Sim uArch: core:  1, cta: 4 initialized @(5,0)
GPGPU-Sim uArch: core:  2, cta: 4 initialized @(5,0)
GPGPU-Sim uArch: core:  3, cta: 4 initialized @(5,0)
GPGPU-Sim uArch: core:  4, cta: 4 initialized @(5,0)
GPGPU-Sim uArch: core:  5, cta: 4 initialized @(5,0)
GPGPU-Sim uArch: core:  6, cta: 4 initialized @(5,0)
GPGPU-Sim uArch: core:  7, cta: 4 initialized @(5,0)
GPGPU-Sim uArch: core:  8, cta: 4 initialized @(5,0)
GPGPU-Sim uArch: core:  9, cta: 4 initialized @(5,0)
GPGPU-Sim uArch: core: 10, cta: 4 initialized @(5,0)
GPGPU-Sim uArch: core: 11, cta: 4 initialized @(5,0)
GPGPU-Sim uArch: core: 12, cta: 4 initialized @(5,0)
GPGPU-Sim uArch: core: 13, cta: 4 initialized @(5,0)
GPGPU-Sim uArch: core: 14, cta: 4 initialized @(5,0)
GPGPU-Sim uArch: core:  0, cta: 4 initialized @(5,0)
GPGPU-Sim uArch: core:  1, cta: 5 initialized @(6,0)
GPGPU-Sim uArch: core:  2, cta: 5 initialized @(6,0)
GPGPU-Sim uArch: core:  3, cta: 5 initialized @(6,0)
GPGPU-Sim uArch: core:  4, cta: 5 initialized @(6,0)
GPGPU-Sim uArch: core:  5, cta: 5 initialized @(6,0)
GPGPU-Sim uArch: core:  6, cta: 5 initialized @(6,0)
GPGPU-Sim uArch: core:  7, cta: 5 initialized @(6,0)
GPGPU-Sim uArch: core:  8, cta: 5 initialized @(6,0)
GPGPU-Sim uArch: core:  9, cta: 5 initialized @(6,0)
GPGPU-Sim uArch: core: 10, cta: 5 initialized @(6,0)
GPGPU-Sim uArch: core: 11, cta: 5 initialized @(6,0)
GPGPU-Sim uArch: core: 12, cta: 5 initialized @(6,0)
GPGPU-Sim uArch: core: 13, cta: 5 initialized @(6,0)
GPGPU-Sim uArch: core: 14, cta: 5 initialized @(6,0)
GPGPU-Sim uArch: core:  0, cta: 5 initialized @(6,0)
GPGPU-Sim uArch: core:  1, cta: 6 initialized @(7,0)
GPGPU-Sim uArch: core:  2, cta: 6 initialized @(7,0)
GPGPU-Sim uArch: core:  3, cta: 6 initialized @(7,0)
GPGPU-Sim uArch: core:  4, cta: 6 initialized @(7,0)
GPGPU-Sim uArch: core:  5, cta: 6 initialized @(7,0)
GPGPU-Sim uArch: core:  6, cta: 6 initialized @(7,0)
GPGPU-Sim uArch: core:  7, cta: 6 initialized @(7,0)
GPGPU-Sim uArch: core:  8, cta: 6 initialized @(7,0)
GPGPU-Sim uArch: core:  9, cta: 6 initialized @(7,0)
GPGPU-Sim uArch: core: 10, cta: 6 initialized @(7,0)
GPGPU-Sim uArch: core: 11, cta: 6 initialized @(7,0)
GPGPU-Sim uArch: core: 12, cta: 6 initialized @(7,0)
GPGPU-Sim uArch: core: 13, cta: 6 initialized @(7,0)
GPGPU-Sim uArch: core: 14, cta: 6 initialized @(7,0)
GPGPU-Sim uArch: core:  0, cta: 6 initialized @(7,0)
GPGPU-Sim uArch: core:  1, cta: 7 initialized @(8,0)
GPGPU-Sim uArch: core:  2, cta: 7 initialized @(8,0)
GPGPU-Sim uArch: core:  3, cta: 7 initialized @(8,0)
GPGPU-Sim uArch: core:  4, cta: 7 initialized @(8,0)
GPGPU-Sim uArch: core:  5, cta: 7 initialized @(8,0)
GPGPU-Sim uArch: core:  6, cta: 7 initialized @(8,0)
GPGPU-Sim uArch: core:  7, cta: 7 initialized @(8,0)
GPGPU-Sim uArch: core:  8, cta: 7 initialized @(8,0)
GPGPU-Sim uArch: core:  9, cta: 7 initialized @(8,0)
GPGPU-Sim uArch: core: 10, cta: 7 initialized @(8,0)
GPGPU-Sim uArch: core: 11, cta: 7 initialized @(8,0)
GPGPU-Sim uArch: core: 12, cta: 7 initialized @(8,0)
GPGPU-Sim uArch: core: 13, cta: 7 initialized @(8,0)
GPGPU-Sim uArch: core: 14, cta: 7 initialized @(8,0)
GPGPU-Sim uArch: core:  0, cta: 7 initialized @(8,0)
GPGPU-Sim PTX: 100000 instructions simulated : ctaid=(13,0,0) tid=(31,0,0)
GPGPU-Sim uArch: cycles simulated: 500  inst.: 92160 (ipc=184.3) sim_rate=46080 (inst/sec) elapsed = 0:0:00:02 / Wed Mar  2 01:13:25 2016
GPGPU-Sim PTX: 200000 instructions simulated : ctaid=(94,0,0) tid=(63,0,0)
GPGPU-Sim PTX: 300000 instructions simulated : ctaid=(97,0,0) tid=(127,0,0)
GPGPU-Sim PTX: 400000 instructions simulated : ctaid=(53,0,0) tid=(31,0,0)
GPGPU-Sim uArch: cycles simulated: 1500  inst.: 423392 (ipc=282.3) sim_rate=141130 (inst/sec) elapsed = 0:0:00:03 / Wed Mar  2 01:13:26 2016
GPGPU-Sim PTX: 500000 instructions simulated : ctaid=(64,0,0) tid=(31,0,0)
GPGPU-Sim PTX: 600000 instructions simulated : ctaid=(19,0,0) tid=(95,0,0)
GPGPU-Sim PTX: 700000 instructions simulated : ctaid=(90,0,0) tid=(127,0,0)
GPGPU-Sim uArch: cycles simulated: 3000  inst.: 736544 (ipc=245.5) sim_rate=184136 (inst/sec) elapsed = 0:0:00:04 / Wed Mar  2 01:13:27 2016
GPGPU-Sim PTX: 800000 instructions simulated : ctaid=(104,0,0) tid=(31,0,0)
GPGPU-Sim PTX: 900000 instructions simulated : ctaid=(11,0,0) tid=(63,0,0)
GPGPU-Sim PTX: 1000000 instructions simulated : ctaid=(9,0,0) tid=(31,0,0)
GPGPU-Sim PTX: 1100000 instructions simulated : ctaid=(76,0,0) tid=(95,0,0)
GPGPU-Sim PTX: 1200000 instructions simulated : ctaid=(82,0,0) tid=(63,0,0)
GPGPU-Sim PTX: 1300000 instructions simulated : ctaid=(70,0,0) tid=(63,0,0)
GPGPU-Sim uArch: cycles simulated: 4000  inst.: 1274272 (ipc=318.6) sim_rate=254854 (inst/sec) elapsed = 0:0:00:05 / Wed Mar  2 01:13:28 2016
GPGPU-Sim PTX: 1400000 instructions simulated : ctaid=(67,0,0) tid=(63,0,0)
GPGPU-Sim PTX: 1500000 instructions simulated : ctaid=(16,0,0) tid=(31,0,0)
GPGPU-Sim PTX: 1600000 instructions simulated : ctaid=(49,0,0) tid=(63,0,0)
GPGPU-Sim PTX: 1700000 instructions simulated : ctaid=(80,0,0) tid=(31,0,0)
GPGPU-Sim PTX: 1800000 instructions simulated : ctaid=(111,0,0) tid=(127,0,0)
GPGPU-Sim uArch: cycles simulated: 5000  inst.: 1817280 (ipc=363.5) sim_rate=302880 (inst/sec) elapsed = 0:0:00:06 / Wed Mar  2 01:13:29 2016
GPGPU-Sim PTX: 1900000 instructions simulated : ctaid=(34,0,0) tid=(127,0,0)
GPGPU-Sim PTX: 2000000 instructions simulated : ctaid=(8,0,0) tid=(127,0,0)
GPGPU-Sim uArch: cycles simulated: 6500  inst.: 2031008 (ipc=312.5) sim_rate=290144 (inst/sec) elapsed = 0:0:00:07 / Wed Mar  2 01:13:30 2016
GPGPU-Sim PTX: 2100000 instructions simulated : ctaid=(1,0,0) tid=(95,0,0)
GPGPU-Sim PTX: 2200000 instructions simulated : ctaid=(44,0,0) tid=(31,0,0)
GPGPU-Sim PTX: 2300000 instructions simulated : ctaid=(45,0,0) tid=(31,0,0)
GPGPU-Sim PTX: 2400000 instructions simulated : ctaid=(50,0,0) tid=(95,0,0)
GPGPU-Sim PTX: 2500000 instructions simulated : ctaid=(63,0,0) tid=(31,0,0)
GPGPU-Sim PTX: 2600000 instructions simulated : ctaid=(12,0,0) tid=(63,0,0)
GPGPU-Sim PTX: 2700000 instructions simulated : ctaid=(12,0,0) tid=(63,0,0)
GPGPU-Sim uArch: cycles simulated: 8000  inst.: 2701184 (ipc=337.6) sim_rate=337648 (inst/sec) elapsed = 0:0:00:08 / Wed Mar  2 01:13:31 2016
GPGPU-Sim PTX: 2800000 instructions simulated : ctaid=(43,0,0) tid=(63,0,0)
GPGPU-Sim PTX: 2900000 instructions simulated : ctaid=(40,0,0) tid=(127,0,0)
GPGPU-Sim PTX: 3000000 instructions simulated : ctaid=(77,0,0) tid=(95,0,0)
GPGPU-Sim uArch: cycles simulated: 9000  inst.: 3043424 (ipc=338.2) sim_rate=338158 (inst/sec) elapsed = 0:0:00:09 / Wed Mar  2 01:13:32 2016
GPGPU-Sim PTX: 3100000 instructions simulated : ctaid=(19,0,0) tid=(95,0,0)
GPGPU-Sim PTX: 3200000 instructions simulated : ctaid=(53,0,0) tid=(63,0,0)
GPGPU-Sim PTX: 3300000 instructions simulated : ctaid=(15,0,0) tid=(31,0,0)
GPGPU-Sim PTX: 3400000 instructions simulated : ctaid=(32,0,0) tid=(31,0,0)
GPGPU-Sim PTX: 3500000 instructions simulated : ctaid=(82,0,0) tid=(31,0,0)
GPGPU-Sim uArch: cycles simulated: 10500  inst.: 3487904 (ipc=332.2) sim_rate=348790 (inst/sec) elapsed = 0:0:00:10 / Wed Mar  2 01:13:33 2016
GPGPU-Sim PTX: 3600000 instructions simulated : ctaid=(6,0,0) tid=(95,0,0)
GPGPU-Sim PTX: 3700000 instructions simulated : ctaid=(85,0,0) tid=(31,0,0)
GPGPU-Sim PTX: 3800000 instructions simulated : ctaid=(22,0,0) tid=(31,0,0)
GPGPU-Sim PTX: 3900000 instructions simulated : ctaid=(100,0,0) tid=(31,0,0)
GPGPU-Sim PTX: 4000000 instructions simulated : ctaid=(54,0,0) tid=(63,0,0)
GPGPU-Sim uArch: cycles simulated: 12000  inst.: 3976000 (ipc=331.3) sim_rate=361454 (inst/sec) elapsed = 0:0:00:11 / Wed Mar  2 01:13:34 2016
GPGPU-Sim PTX: 4100000 instructions simulated : ctaid=(53,0,0) tid=(63,0,0)
GPGPU-Sim PTX: 4200000 instructions simulated : ctaid=(6,0,0) tid=(63,0,0)
GPGPU-Sim PTX: 4300000 instructions simulated : ctaid=(60,0,0) tid=(95,0,0)
GPGPU-Sim PTX: 4400000 instructions simulated : ctaid=(26,0,0) tid=(63,0,0)
GPGPU-Sim PTX: 4500000 instructions simulated : ctaid=(57,0,0) tid=(63,0,0)
GPGPU-Sim uArch: cycles simulated: 13500  inst.: 4466080 (ipc=330.8) sim_rate=372173 (inst/sec) elapsed = 0:0:00:12 / Wed Mar  2 01:13:35 2016
GPGPU-Sim PTX: 4600000 instructions simulated : ctaid=(6,0,0) tid=(31,0,0)
GPGPU-Sim PTX: 4700000 instructions simulated : ctaid=(25,0,0) tid=(31,0,0)
GPGPU-Sim PTX: 4800000 instructions simulated : ctaid=(44,0,0) tid=(127,0,0)
GPGPU-Sim PTX: 4900000 instructions simulated : ctaid=(22,0,0) tid=(95,0,0)
GPGPU-Sim PTX: 5000000 instructions simulated : ctaid=(52,0,0) tid=(31,0,0)
GPGPU-Sim uArch: cycles simulated: 15000  inst.: 5006752 (ipc=333.8) sim_rate=385134 (inst/sec) elapsed = 0:0:00:13 / Wed Mar  2 01:13:36 2016
GPGPU-Sim PTX: 5100000 instructions simulated : ctaid=(10,0,0) tid=(63,0,0)
GPGPU-Sim PTX: 5200000 instructions simulated : ctaid=(37,0,0) tid=(95,0,0)
GPGPU-Sim PTX: 5300000 instructions simulated : ctaid=(62,0,0) tid=(95,0,0)
GPGPU-Sim uArch: cycles simulated: 16000  inst.: 5333248 (ipc=333.3) sim_rate=380946 (inst/sec) elapsed = 0:0:00:14 / Wed Mar  2 01:13:37 2016
GPGPU-Sim PTX: 5400000 instructions simulated : ctaid=(39,0,0) tid=(95,0,0)
GPGPU-Sim PTX: 5500000 instructions simulated : ctaid=(6,0,0) tid=(31,0,0)
GPGPU-Sim PTX: 5600000 instructions simulated : ctaid=(4,0,0) tid=(31,0,0)
GPGPU-Sim PTX: 5700000 instructions simulated : ctaid=(15,0,0) tid=(127,0,0)
GPGPU-Sim PTX: 5800000 instructions simulated : ctaid=(25,0,0) tid=(31,0,0)
GPGPU-Sim PTX: 5900000 instructions simulated : ctaid=(28,0,0) tid=(31,0,0)
GPGPU-Sim uArch: cycles simulated: 17500  inst.: 5878912 (ipc=335.9) sim_rate=391927 (inst/sec) elapsed = 0:0:00:15 / Wed Mar  2 01:13:38 2016
GPGPU-Sim PTX: 6000000 instructions simulated : ctaid=(71,0,0) tid=(95,0,0)
GPGPU-Sim PTX: 6100000 instructions simulated : ctaid=(74,0,0) tid=(95,0,0)
GPGPU-Sim PTX: 6200000 instructions simulated : ctaid=(24,0,0) tid=(95,0,0)
GPGPU-Sim uArch: cycles simulated: 18500  inst.: 6247264 (ipc=337.7) sim_rate=390454 (inst/sec) elapsed = 0:0:00:16 / Wed Mar  2 01:13:39 2016
GPGPU-Sim PTX: 6300000 instructions simulated : ctaid=(45,0,0) tid=(31,0,0)
GPGPU-Sim PTX: 6400000 instructions simulated : ctaid=(38,0,0) tid=(95,0,0)
GPGPU-Sim PTX: 6500000 instructions simulated : ctaid=(39,0,0) tid=(31,0,0)
GPGPU-Sim PTX: 6600000 instructions simulated : ctaid=(22,0,0) tid=(31,0,0)
GPGPU-Sim PTX: 6700000 instructions simulated : ctaid=(23,0,0) tid=(127,0,0)
GPGPU-Sim uArch: cycles simulated: 20000  inst.: 6757376 (ipc=337.9) sim_rate=397492 (inst/sec) elapsed = 0:0:00:17 / Wed Mar  2 01:13:40 2016
GPGPU-Sim PTX: 6800000 instructions simulated : ctaid=(38,0,0) tid=(31,0,0)
GPGPU-Sim PTX: 6900000 instructions simulated : ctaid=(19,0,0) tid=(127,0,0)
GPGPU-Sim PTX: 7000000 instructions simulated : ctaid=(64,0,0) tid=(31,0,0)
GPGPU-Sim PTX: 7100000 instructions simulated : ctaid=(46,0,0) tid=(31,0,0)
GPGPU-Sim PTX: 7200000 instructions simulated : ctaid=(45,0,0) tid=(31,0,0)
GPGPU-Sim uArch: cycles simulated: 21500  inst.: 7258656 (ipc=337.6) sim_rate=403258 (inst/sec) elapsed = 0:0:00:18 / Wed Mar  2 01:13:41 2016
GPGPU-Sim PTX: 7300000 instructions simulated : ctaid=(47,0,0) tid=(31,0,0)
GPGPU-Sim PTX: 7400000 instructions simulated : ctaid=(50,0,0) tid=(95,0,0)
GPGPU-Sim PTX: 7500000 instructions simulated : ctaid=(18,0,0) tid=(95,0,0)
GPGPU-Sim PTX: 7600000 instructions simulated : ctaid=(35,0,0) tid=(63,0,0)
GPGPU-Sim PTX: 7700000 instructions simulated : ctaid=(29,0,0) tid=(63,0,0)
GPGPU-Sim PTX: 7800000 instructions simulated : ctaid=(34,0,0) tid=(31,0,0)
GPGPU-Sim uArch: cycles simulated: 23000  inst.: 7769632 (ipc=337.8) sim_rate=408928 (inst/sec) elapsed = 0:0:00:19 / Wed Mar  2 01:13:42 2016
GPGPU-Sim PTX: 7900000 instructions simulated : ctaid=(42,0,0) tid=(63,0,0)
GPGPU-Sim PTX: 8000000 instructions simulated : ctaid=(81,0,0) tid=(95,0,0)
GPGPU-Sim PTX: 8100000 instructions simulated : ctaid=(21,0,0) tid=(127,0,0)
GPGPU-Sim uArch: cycles simulated: 24000  inst.: 8108384 (ipc=337.8) sim_rate=405419 (inst/sec) elapsed = 0:0:00:20 / Wed Mar  2 01:13:43 2016
GPGPU-Sim PTX: 8200000 instructions simulated : ctaid=(0,0,0) tid=(95,0,0)
GPGPU-Sim PTX: 8300000 instructions simulated : ctaid=(57,0,0) tid=(127,0,0)
GPGPU-Sim PTX: 8400000 instructions simulated : ctaid=(0,0,0) tid=(127,0,0)
GPGPU-Sim PTX: 8500000 instructions simulated : ctaid=(1,0,0) tid=(31,0,0)
GPGPU-Sim PTX: 8600000 instructions simulated : ctaid=(32,0,0) tid=(31,0,0)
GPGPU-Sim uArch: cycles simulated: 25500  inst.: 8630560 (ipc=338.5) sim_rate=410979 (inst/sec) elapsed = 0:0:00:21 / Wed Mar  2 01:13:44 2016
GPGPU-Sim PTX: 8700000 instructions simulated : ctaid=(60,0,0) tid=(127,0,0)
GPGPU-Sim PTX: 8800000 instructions simulated : ctaid=(38,0,0) tid=(127,0,0)
GPGPU-Sim PTX: 8900000 instructions simulated : ctaid=(8,0,0) tid=(127,0,0)
GPGPU-Sim PTX: 9000000 instructions simulated : ctaid=(48,0,0) tid=(95,0,0)
GPGPU-Sim PTX: 9100000 instructions simulated : ctaid=(21,0,0) tid=(95,0,0)
GPGPU-Sim PTX: 9200000 instructions simulated : ctaid=(62,0,0) tid=(31,0,0)
GPGPU-Sim uArch: cycles simulated: 27000  inst.: 9166592 (ipc=339.5) sim_rate=416663 (inst/sec) elapsed = 0:0:00:22 / Wed Mar  2 01:13:45 2016
GPGPU-Sim PTX: 9300000 instructions simulated : ctaid=(13,0,0) tid=(95,0,0)
GPGPU-Sim PTX: 9400000 instructions simulated : ctaid=(63,0,0) tid=(31,0,0)
GPGPU-Sim PTX: 9500000 instructions simulated : ctaid=(59,0,0) tid=(31,0,0)
GPGPU-Sim uArch: cycles simulated: 28000  inst.: 9489216 (ipc=338.9) sim_rate=412574 (inst/sec) elapsed = 0:0:00:23 / Wed Mar  2 01:13:46 2016
GPGPU-Sim PTX: 9600000 instructions simulated : ctaid=(48,0,0) tid=(95,0,0)
GPGPU-Sim PTX: 9700000 instructions simulated : ctaid=(52,0,0) tid=(95,0,0)
GPGPU-Sim PTX: 9800000 instructions simulated : ctaid=(102,0,0) tid=(31,0,0)
GPGPU-Sim PTX: 9900000 instructions simulated : ctaid=(18,0,0) tid=(31,0,0)
GPGPU-Sim PTX: 10000000 instructions simulated : ctaid=(43,0,0) tid=(63,0,0)
GPGPU-Sim uArch: cycles simulated: 29500  inst.: 9999136 (ipc=339.0) sim_rate=416630 (inst/sec) elapsed = 0:0:00:24 / Wed Mar  2 01:13:47 2016
GPGPU-Sim PTX: 10100000 instructions simulated : ctaid=(83,0,0) tid=(31,0,0)
GPGPU-Sim PTX: 10200000 instructions simulated : ctaid=(82,0,0) tid=(31,0,0)
GPGPU-Sim PTX: 10300000 instructions simulated : ctaid=(18,0,0) tid=(63,0,0)
GPGPU-Sim PTX: 10400000 instructions simulated : ctaid=(38,0,0) tid=(127,0,0)
GPGPU-Sim PTX: 10500000 instructions simulated : ctaid=(53,0,0) tid=(95,0,0)
GPGPU-Sim uArch: cycles simulated: 31000  inst.: 10501792 (ipc=338.8) sim_rate=420071 (inst/sec) elapsed = 0:0:00:25 / Wed Mar  2 01:13:48 2016
GPGPU-Sim PTX: 10600000 instructions simulated : ctaid=(8,0,0) tid=(127,0,0)
GPGPU-Sim PTX: 10700000 instructions simulated : ctaid=(44,0,0) tid=(31,0,0)
GPGPU-Sim PTX: 10800000 instructions simulated : ctaid=(24,0,0) tid=(31,0,0)
GPGPU-Sim PTX: 10900000 instructions simulated : ctaid=(53,0,0) tid=(95,0,0)
GPGPU-Sim PTX: 11000000 instructions simulated : ctaid=(41,0,0) tid=(31,0,0)
GPGPU-Sim uArch: cycles simulated: 32500  inst.: 11042688 (ipc=339.8) sim_rate=424718 (inst/sec) elapsed = 0:0:00:26 / Wed Mar  2 01:13:49 2016
GPGPU-Sim PTX: 11100000 instructions simulated : ctaid=(55,0,0) tid=(95,0,0)
GPGPU-Sim PTX: 11200000 instructions simulated : ctaid=(102,0,0) tid=(31,0,0)
GPGPU-Sim PTX: 11300000 instructions simulated : ctaid=(9,0,0) tid=(127,0,0)
GPGPU-Sim PTX: 11400000 instructions simulated : ctaid=(47,0,0) tid=(95,0,0)
GPGPU-Sim uArch: cycles simulated: 33500  inst.: 11393664 (ipc=340.1) sim_rate=421987 (inst/sec) elapsed = 0:0:00:27 / Wed Mar  2 01:13:50 2016
GPGPU-Sim PTX: 11500000 instructions simulated : ctaid=(3,0,0) tid=(63,0,0)
GPGPU-Sim PTX: 11600000 instructions simulated : ctaid=(24,0,0) tid=(63,0,0)
GPGPU-Sim PTX: 11700000 instructions simulated : ctaid=(62,0,0) tid=(95,0,0)
GPGPU-Sim PTX: 11800000 instructions simulated : ctaid=(30,0,0) tid=(95,0,0)
GPGPU-Sim PTX: 11900000 instructions simulated : ctaid=(20,0,0) tid=(127,0,0)
GPGPU-Sim uArch: cycles simulated: 35000  inst.: 11895328 (ipc=339.9) sim_rate=424833 (inst/sec) elapsed = 0:0:00:28 / Wed Mar  2 01:13:51 2016
GPGPU-Sim PTX: 12000000 instructions simulated : ctaid=(0,0,0) tid=(95,0,0)
GPGPU-Sim PTX: 12100000 instructions simulated : ctaid=(45,0,0) tid=(127,0,0)
GPGPU-Sim PTX: 12200000 instructions simulated : ctaid=(35,0,0) tid=(127,0,0)
GPGPU-Sim PTX: 12300000 instructions simulated : ctaid=(20,0,0) tid=(63,0,0)
GPGPU-Sim PTX: 12400000 instructions simulated : ctaid=(55,0,0) tid=(95,0,0)
GPGPU-Sim uArch: cycles simulated: 36500  inst.: 12401216 (ipc=339.8) sim_rate=427628 (inst/sec) elapsed = 0:0:00:29 / Wed Mar  2 01:13:52 2016
GPGPU-Sim PTX: 12500000 instructions simulated : ctaid=(11,0,0) tid=(127,0,0)
GPGPU-Sim PTX: 12600000 instructions simulated : ctaid=(23,0,0) tid=(63,0,0)
GPGPU-Sim PTX: 12700000 instructions simulated : ctaid=(78,0,0) tid=(31,0,0)
GPGPU-Sim PTX: 12800000 instructions simulated : ctaid=(44,0,0) tid=(127,0,0)
GPGPU-Sim PTX: 12900000 instructions simulated : ctaid=(8,0,0) tid=(95,0,0)
GPGPU-Sim uArch: cycles simulated: 38000  inst.: 12932128 (ipc=340.3) sim_rate=431070 (inst/sec) elapsed = 0:0:00:30 / Wed Mar  2 01:13:53 2016
GPGPU-Sim PTX: 13000000 instructions simulated : ctaid=(18,0,0) tid=(63,0,0)
GPGPU-Sim PTX: 13100000 instructions simulated : ctaid=(59,0,0) tid=(95,0,0)
GPGPU-Sim PTX: 13200000 instructions simulated : ctaid=(117,0,0) tid=(31,0,0)
GPGPU-Sim PTX: 13300000 instructions simulated : ctaid=(64,0,0) tid=(31,0,0)
GPGPU-Sim uArch: cycles simulated: 39000  inst.: 13302176 (ipc=341.1) sim_rate=429102 (inst/sec) elapsed = 0:0:00:31 / Wed Mar  2 01:13:54 2016
GPGPU-Sim PTX: 13400000 instructions simulated : ctaid=(73,0,0) tid=(95,0,0)
GPGPU-Sim PTX: 13500000 instructions simulated : ctaid=(19,0,0) tid=(63,0,0)
GPGPU-Sim PTX: 13600000 instructions simulated : ctaid=(26,0,0) tid=(95,0,0)
GPGPU-Sim PTX: 13700000 instructions simulated : ctaid=(37,0,0) tid=(95,0,0)
GPGPU-Sim PTX: 13800000 instructions simulated : ctaid=(24,0,0) tid=(63,0,0)
GPGPU-Sim uArch: cycles simulated: 40500  inst.: 13819488 (ipc=341.2) sim_rate=431859 (inst/sec) elapsed = 0:0:00:32 / Wed Mar  2 01:13:55 2016
GPGPU-Sim PTX: 13900000 instructions simulated : ctaid=(2,0,0) tid=(95,0,0)
GPGPU-Sim PTX: 14000000 instructions simulated : ctaid=(47,0,0) tid=(63,0,0)
GPGPU-Sim PTX: 14100000 instructions simulated : ctaid=(25,0,0) tid=(95,0,0)
GPGPU-Sim PTX: 14200000 instructions simulated : ctaid=(24,0,0) tid=(127,0,0)
GPGPU-Sim PTX: 14300000 instructions simulated : ctaid=(36,0,0) tid=(31,0,0)
GPGPU-Sim uArch: cycles simulated: 42000  inst.: 14315520 (ipc=340.8) sim_rate=433803 (inst/sec) elapsed = 0:0:00:33 / Wed Mar  2 01:13:56 2016
GPGPU-Sim PTX: 14400000 instructions simulated : ctaid=(3,0,0) tid=(95,0,0)
GPGPU-Sim PTX: 14500000 instructions simulated : ctaid=(38,0,0) tid=(31,0,0)
GPGPU-Sim PTX: 14600000 instructions simulated : ctaid=(38,0,0) tid=(31,0,0)
GPGPU-Sim uArch: cycles simulated: 43000  inst.: 14659360 (ipc=340.9) sim_rate=431157 (inst/sec) elapsed = 0:0:00:34 / Wed Mar  2 01:13:57 2016
GPGPU-Sim PTX: 14700000 instructions simulated : ctaid=(74,0,0) tid=(127,0,0)
GPGPU-Sim PTX: 14800000 instructions simulated : ctaid=(47,0,0) tid=(63,0,0)
GPGPU-Sim PTX: 14900000 instructions simulated : ctaid=(14,0,0) tid=(63,0,0)
GPGPU-Sim PTX: 15000000 instructions simulated : ctaid=(53,0,0) tid=(31,0,0)
GPGPU-Sim PTX: 15100000 instructions simulated : ctaid=(73,0,0) tid=(31,0,0)
GPGPU-Sim PTX: 15200000 instructions simulated : ctaid=(6,0,0) tid=(127,0,0)
GPGPU-Sim uArch: cycles simulated: 44500  inst.: 15214400 (ipc=341.9) sim_rate=434697 (inst/sec) elapsed = 0:0:00:35 / Wed Mar  2 01:13:58 2016
GPGPU-Sim PTX: 15300000 instructions simulated : ctaid=(0,0,0) tid=(127,0,0)
GPGPU-Sim PTX: 15400000 instructions simulated : ctaid=(29,0,0) tid=(31,0,0)
GPGPU-Sim PTX: 15500000 instructions simulated : ctaid=(51,0,0) tid=(95,0,0)
GPGPU-Sim PTX: 15600000 instructions simulated : ctaid=(67,0,0) tid=(127,0,0)
GPGPU-Sim PTX: 15700000 instructions simulated : ctaid=(42,0,0) tid=(31,0,0)
GPGPU-Sim uArch: cycles simulated: 46000  inst.: 15742880 (ipc=342.2) sim_rate=437302 (inst/sec) elapsed = 0:0:00:36 / Wed Mar  2 01:13:59 2016
GPGPU-Sim PTX: 15800000 instructions simulated : ctaid=(19,0,0) tid=(95,0,0)
GPGPU-Sim PTX: 15900000 instructions simulated : ctaid=(27,0,0) tid=(31,0,0)
GPGPU-Sim PTX: 16000000 instructions simulated : ctaid=(18,0,0) tid=(127,0,0)
GPGPU-Sim PTX: 16100000 instructions simulated : ctaid=(18,0,0) tid=(127,0,0)
GPGPU-Sim uArch: cycles simulated: 47000  inst.: 16088288 (ipc=342.3) sim_rate=434818 (inst/sec) elapsed = 0:0:00:37 / Wed Mar  2 01:14:00 2016
GPGPU-Sim PTX: 16200000 instructions simulated : ctaid=(14,0,0) tid=(127,0,0)
GPGPU-Sim PTX: 16300000 instructions simulated : ctaid=(52,0,0) tid=(95,0,0)
GPGPU-Sim PTX: 16400000 instructions simulated : ctaid=(37,0,0) tid=(95,0,0)
GPGPU-Sim PTX: 16500000 instructions simulated : ctaid=(27,0,0) tid=(95,0,0)
GPGPU-Sim PTX: 16600000 instructions simulated : ctaid=(29,0,0) tid=(31,0,0)
GPGPU-Sim uArch: cycles simulated: 48500  inst.: 16619232 (ipc=342.7) sim_rate=437348 (inst/sec) elapsed = 0:0:00:38 / Wed Mar  2 01:14:01 2016
GPGPU-Sim PTX: 16700000 instructions simulated : ctaid=(10,0,0) tid=(63,0,0)
GPGPU-Sim PTX: 16800000 instructions simulated : ctaid=(8,0,0) tid=(31,0,0)
GPGPU-Sim PTX: 16900000 instructions simulated : ctaid=(43,0,0) tid=(127,0,0)
GPGPU-Sim PTX: 17000000 instructions simulated : ctaid=(85,0,0) tid=(31,0,0)
GPGPU-Sim PTX: 17100000 instructions simulated : ctaid=(0,0,0) tid=(127,0,0)
GPGPU-Sim uArch: cycles simulated: 50000  inst.: 17164768 (ipc=343.3) sim_rate=440122 (inst/sec) elapsed = 0:0:00:39 / Wed Mar  2 01:14:02 2016
GPGPU-Sim PTX: 17200000 instructions simulated : ctaid=(31,0,0) tid=(31,0,0)
GPGPU-Sim PTX: 17300000 instructions simulated : ctaid=(47,0,0) tid=(31,0,0)
GPGPU-Sim PTX: 17400000 instructions simulated : ctaid=(35,0,0) tid=(31,0,0)
GPGPU-Sim PTX: 17500000 instructions simulated : ctaid=(7,0,0) tid=(127,0,0)
GPGPU-Sim uArch: cycles simulated: 51000  inst.: 17502176 (ipc=343.2) sim_rate=437554 (inst/sec) elapsed = 0:0:00:40 / Wed Mar  2 01:14:03 2016
GPGPU-Sim PTX: 17600000 instructions simulated : ctaid=(21,0,0) tid=(127,0,0)
GPGPU-Sim PTX: 17700000 instructions simulated : ctaid=(25,0,0) tid=(63,0,0)
GPGPU-Sim PTX: 17800000 instructions simulated : ctaid=(50,0,0) tid=(95,0,0)
GPGPU-Sim PTX: 17900000 instructions simulated : ctaid=(31,0,0) tid=(63,0,0)
GPGPU-Sim PTX: 18000000 instructions simulated : ctaid=(19,0,0) tid=(63,0,0)
GPGPU-Sim uArch: cycles simulated: 52500  inst.: 18032896 (ipc=343.5) sim_rate=439826 (inst/sec) elapsed = 0:0:00:41 / Wed Mar  2 01:14:04 2016
GPGPU-Sim PTX: 18100000 instructions simulated : ctaid=(2,0,0) tid=(127,0,0)
GPGPU-Sim PTX: 18200000 instructions simulated : ctaid=(18,0,0) tid=(31,0,0)
GPGPU-Sim PTX: 18300000 instructions simulated : ctaid=(14,0,0) tid=(127,0,0)
GPGPU-Sim PTX: 18400000 instructions simulated : ctaid=(33,0,0) tid=(95,0,0)
GPGPU-Sim PTX: 18500000 instructions simulated : ctaid=(60,0,0) tid=(31,0,0)
GPGPU-Sim PTX: 18600000 instructions simulated : ctaid=(20,0,0) tid=(95,0,0)
GPGPU-Sim uArch: cycles simulated: 54000  inst.: 18571392 (ipc=343.9) sim_rate=442176 (inst/sec) elapsed = 0:0:00:42 / Wed Mar  2 01:14:05 2016
GPGPU-Sim PTX: 18700000 instructions simulated : ctaid=(4,0,0) tid=(31,0,0)
GPGPU-Sim PTX: 18800000 instructions simulated : ctaid=(43,0,0) tid=(63,0,0)
GPGPU-Sim PTX: 18900000 instructions simulated : ctaid=(18,0,0) tid=(127,0,0)
GPGPU-Sim uArch: cycles simulated: 55000  inst.: 18924256 (ipc=344.1) sim_rate=440098 (inst/sec) elapsed = 0:0:00:43 / Wed Mar  2 01:14:06 2016
GPGPU-Sim PTX: 19000000 instructions simulated : ctaid=(35,0,0) tid=(127,0,0)
GPGPU-Sim PTX: 19100000 instructions simulated : ctaid=(15,0,0) tid=(95,0,0)
GPGPU-Sim PTX: 19200000 instructions simulated : ctaid=(3,0,0) tid=(95,0,0)
GPGPU-Sim PTX: 19300000 instructions simulated : ctaid=(84,0,0) tid=(63,0,0)
GPGPU-Sim PTX: 19400000 instructions simulated : ctaid=(69,0,0) tid=(95,0,0)
GPGPU-Sim uArch: cycles simulated: 56500  inst.: 19447392 (ipc=344.2) sim_rate=441986 (inst/sec) elapsed = 0:0:00:44 / Wed Mar  2 01:14:07 2016
GPGPU-Sim PTX: 19500000 instructions simulated : ctaid=(67,0,0) tid=(31,0,0)
GPGPU-Sim PTX: 19600000 instructions simulated : ctaid=(11,0,0) tid=(127,0,0)
GPGPU-Sim PTX: 19700000 instructions simulated : ctaid=(52,0,0) tid=(31,0,0)
GPGPU-Sim PTX: 19800000 instructions simulated : ctaid=(52,0,0) tid=(95,0,0)
GPGPU-Sim PTX: 19900000 instructions simulated : ctaid=(82,0,0) tid=(127,0,0)
GPGPU-Sim PTX: 20000000 instructions simulated : ctaid=(11,0,0) tid=(95,0,0)
GPGPU-Sim uArch: cycles simulated: 58000  inst.: 19969248 (ipc=344.3) sim_rate=443761 (inst/sec) elapsed = 0:0:00:45 / Wed Mar  2 01:14:08 2016
GPGPU-Sim PTX: 20100000 instructions simulated : ctaid=(12,0,0) tid=(95,0,0)
GPGPU-Sim PTX: 20200000 instructions simulated : ctaid=(6,0,0) tid=(31,0,0)
GPGPU-Sim PTX: 20300000 instructions simulated : ctaid=(0,0,0) tid=(63,0,0)
GPGPU-Sim PTX: 20400000 instructions simulated : ctaid=(75,0,0) tid=(31,0,0)
GPGPU-Sim PTX: 20500000 instructions simulated : ctaid=(90,0,0) tid=(95,0,0)
GPGPU-Sim uArch: cycles simulated: 59500  inst.: 20497920 (ipc=344.5) sim_rate=445606 (inst/sec) elapsed = 0:0:00:46 / Wed Mar  2 01:14:09 2016
GPGPU-Sim PTX: 20600000 instructions simulated : ctaid=(42,0,0) tid=(95,0,0)
GPGPU-Sim PTX: 20700000 instructions simulated : ctaid=(11,0,0) tid=(63,0,0)
GPGPU-Sim PTX: 20800000 instructions simulated : ctaid=(54,0,0) tid=(63,0,0)
GPGPU-Sim PTX: 20900000 instructions simulated : ctaid=(4,0,0) tid=(31,0,0)
GPGPU-Sim uArch: cycles simulated: 60500  inst.: 20873920 (ipc=345.0) sim_rate=444125 (inst/sec) elapsed = 0:0:00:47 / Wed Mar  2 01:14:10 2016
GPGPU-Sim PTX: 21000000 instructions simulated : ctaid=(31,0,0) tid=(95,0,0)
GPGPU-Sim PTX: 21100000 instructions simulated : ctaid=(7,0,0) tid=(127,0,0)
GPGPU-Sim PTX: 21200000 instructions simulated : ctaid=(43,0,0) tid=(31,0,0)
GPGPU-Sim PTX: 21300000 instructions simulated : ctaid=(55,0,0) tid=(63,0,0)
GPGPU-Sim PTX: 21400000 instructions simulated : ctaid=(51,0,0) tid=(95,0,0)
GPGPU-Sim uArch: cycles simulated: 62000  inst.: 21392960 (ipc=345.0) sim_rate=445686 (inst/sec) elapsed = 0:0:00:48 / Wed Mar  2 01:14:11 2016
GPGPU-Sim PTX: 21500000 instructions simulated : ctaid=(56,0,0) tid=(31,0,0)
GPGPU-Sim PTX: 21600000 instructions simulated : ctaid=(68,0,0) tid=(95,0,0)
GPGPU-Sim PTX: 21700000 instructions simulated : ctaid=(32,0,0) tid=(95,0,0)
GPGPU-Sim PTX: 21800000 instructions simulated : ctaid=(13,0,0) tid=(95,0,0)
GPGPU-Sim PTX: 21900000 instructions simulated : ctaid=(64,0,0) tid=(95,0,0)
GPGPU-Sim uArch: cycles simulated: 63500  inst.: 21923744 (ipc=345.3) sim_rate=447423 (inst/sec) elapsed = 0:0:00:49 / Wed Mar  2 01:14:12 2016
GPGPU-Sim PTX: 22000000 instructions simulated : ctaid=(23,0,0) tid=(63,0,0)
GPGPU-Sim PTX: 22100000 instructions simulated : ctaid=(55,0,0) tid=(95,0,0)
GPGPU-Sim PTX: 22200000 instructions simulated : ctaid=(60,0,0) tid=(31,0,0)
GPGPU-Sim PTX: 22300000 instructions simulated : ctaid=(28,0,0) tid=(127,0,0)
GPGPU-Sim uArch: cycles simulated: 64500  inst.: 22280832 (ipc=345.4) sim_rate=445616 (inst/sec) elapsed = 0:0:00:50 / Wed Mar  2 01:14:13 2016
GPGPU-Sim PTX: 22400000 instructions simulated : ctaid=(26,0,0) tid=(95,0,0)
GPGPU-Sim PTX: 22500000 instructions simulated : ctaid=(84,0,0) tid=(95,0,0)
GPGPU-Sim PTX: 22600000 instructions simulated : ctaid=(64,0,0) tid=(31,0,0)
GPGPU-Sim PTX: 22700000 instructions simulated : ctaid=(83,0,0) tid=(31,0,0)
GPGPU-Sim PTX: 22800000 instructions simulated : ctaid=(39,0,0) tid=(95,0,0)
GPGPU-Sim uArch: cycles simulated: 66000  inst.: 22795968 (ipc=345.4) sim_rate=446979 (inst/sec) elapsed = 0:0:00:51 / Wed Mar  2 01:14:14 2016
GPGPU-Sim PTX: 22900000 instructions simulated : ctaid=(34,0,0) tid=(95,0,0)
GPGPU-Sim PTX: 23000000 instructions simulated : ctaid=(59,0,0) tid=(63,0,0)
GPGPU-Sim PTX: 23100000 instructions simulated : ctaid=(34,0,0) tid=(31,0,0)
GPGPU-Sim PTX: 23200000 instructions simulated : ctaid=(55,0,0) tid=(95,0,0)
GPGPU-Sim PTX: 23300000 instructions simulated : ctaid=(17,0,0) tid=(127,0,0)
GPGPU-Sim uArch: cycles simulated: 67500  inst.: 23336480 (ipc=345.7) sim_rate=448778 (inst/sec) elapsed = 0:0:00:52 / Wed Mar  2 01:14:15 2016
GPGPU-Sim PTX: 23400000 instructions simulated : ctaid=(87,0,0) tid=(63,0,0)
GPGPU-Sim PTX: 23500000 instructions simulated : ctaid=(33,0,0) tid=(63,0,0)
GPGPU-Sim PTX: 23600000 instructions simulated : ctaid=(53,0,0) tid=(127,0,0)
GPGPU-Sim PTX: 23700000 instructions simulated : ctaid=(38,0,0) tid=(95,0,0)
GPGPU-Sim uArch: cycles simulated: 68500  inst.: 23693824 (ipc=345.9) sim_rate=447053 (inst/sec) elapsed = 0:0:00:53 / Wed Mar  2 01:14:16 2016
GPGPU-Sim PTX: 23800000 instructions simulated : ctaid=(66,0,0) tid=(63,0,0)
GPGPU-Sim PTX: 23900000 instructions simulated : ctaid=(8,0,0) tid=(127,0,0)
GPGPU-Sim PTX: 24000000 instructions simulated : ctaid=(39,0,0) tid=(95,0,0)
GPGPU-Sim PTX: 24100000 instructions simulated : ctaid=(6,0,0) tid=(95,0,0)
GPGPU-Sim PTX: 24200000 instructions simulated : ctaid=(89,0,0) tid=(95,0,0)
GPGPU-Sim uArch: cycles simulated: 70000  inst.: 24243904 (ipc=346.3) sim_rate=448961 (inst/sec) elapsed = 0:0:00:54 / Wed Mar  2 01:14:17 2016
GPGPU-Sim PTX: 24300000 instructions simulated : ctaid=(94,0,0) tid=(95,0,0)
GPGPU-Sim PTX: 24400000 instructions simulated : ctaid=(50,0,0) tid=(63,0,0)
GPGPU-Sim PTX: 24500000 instructions simulated : ctaid=(4,0,0) tid=(127,0,0)
GPGPU-Sim PTX: 24600000 instructions simulated : ctaid=(33,0,0) tid=(95,0,0)
GPGPU-Sim PTX: 24700000 instructions simulated : ctaid=(41,0,0) tid=(127,0,0)
GPGPU-Sim PTX: 24800000 instructions simulated : ctaid=(13,0,0) tid=(31,0,0)
GPGPU-Sim uArch: cycles simulated: 71500  inst.: 24770176 (ipc=346.4) sim_rate=450366 (inst/sec) elapsed = 0:0:00:55 / Wed Mar  2 01:14:18 2016
GPGPU-Sim PTX: 24900000 instructions simulated : ctaid=(45,0,0) tid=(95,0,0)
GPGPU-Sim PTX: 25000000 instructions simulated : ctaid=(40,0,0) tid=(95,0,0)
GPGPU-Sim PTX: 25100000 instructions simulated : ctaid=(18,0,0) tid=(95,0,0)
GPGPU-Sim uArch: cycles simulated: 72500  inst.: 25118112 (ipc=346.5) sim_rate=448537 (inst/sec) elapsed = 0:0:00:56 / Wed Mar  2 01:14:19 2016
GPGPU-Sim PTX: 25200000 instructions simulated : ctaid=(52,0,0) tid=(95,0,0)
GPGPU-Sim PTX: 25300000 instructions simulated : ctaid=(54,0,0) tid=(31,0,0)
GPGPU-Sim PTX: 25400000 instructions simulated : ctaid=(35,0,0) tid=(95,0,0)
GPGPU-Sim PTX: 25500000 instructions simulated : ctaid=(38,0,0) tid=(95,0,0)
GPGPU-Sim PTX: 25600000 instructions simulated : ctaid=(1,0,0) tid=(95,0,0)
GPGPU-Sim uArch: cycles simulated: 74000  inst.: 25642048 (ipc=346.5) sim_rate=449860 (inst/sec) elapsed = 0:0:00:57 / Wed Mar  2 01:14:20 2016
GPGPU-Sim PTX: 25700000 instructions simulated : ctaid=(40,0,0) tid=(95,0,0)
GPGPU-Sim PTX: 25800000 instructions simulated : ctaid=(0,0,0) tid=(31,0,0)
GPGPU-Sim PTX: 25900000 instructions simulated : ctaid=(70,0,0) tid=(63,0,0)
GPGPU-Sim PTX: 26000000 instructions simulated : ctaid=(12,0,0) tid=(127,0,0)
GPGPU-Sim PTX: 26100000 instructions simulated : ctaid=(70,0,0) tid=(31,0,0)
GPGPU-Sim PTX: 26200000 instructions simulated : ctaid=(20,0,0) tid=(95,0,0)
GPGPU-Sim uArch: cycles simulated: 75500  inst.: 26172736 (ipc=346.7) sim_rate=451254 (inst/sec) elapsed = 0:0:00:58 / Wed Mar  2 01:14:21 2016
GPGPU-Sim PTX: 26300000 instructions simulated : ctaid=(43,0,0) tid=(63,0,0)
GPGPU-Sim PTX: 26400000 instructions simulated : ctaid=(16,0,0) tid=(95,0,0)
GPGPU-Sim PTX: 26500000 instructions simulated : ctaid=(3,0,0) tid=(31,0,0)
GPGPU-Sim PTX: 26600000 instructions simulated : ctaid=(43,0,0) tid=(95,0,0)
GPGPU-Sim PTX: 26700000 instructions simulated : ctaid=(30,0,0) tid=(31,0,0)
GPGPU-Sim uArch: cycles simulated: 77000  inst.: 26679552 (ipc=346.5) sim_rate=452195 (inst/sec) elapsed = 0:0:00:59 / Wed Mar  2 01:14:22 2016
GPGPU-Sim PTX: 26800000 instructions simulated : ctaid=(100,0,0) tid=(31,0,0)
GPGPU-Sim PTX: 26900000 instructions simulated : ctaid=(79,0,0) tid=(31,0,0)
GPGPU-Sim PTX: 27000000 instructions simulated : ctaid=(62,0,0) tid=(127,0,0)
GPGPU-Sim PTX: 27100000 instructions simulated : ctaid=(67,0,0) tid=(63,0,0)
GPGPU-Sim uArch: cycles simulated: 78000  inst.: 27067616 (ipc=347.0) sim_rate=451126 (inst/sec) elapsed = 0:0:01:00 / Wed Mar  2 01:14:23 2016
GPGPU-Sim PTX: 27200000 instructions simulated : ctaid=(71,0,0) tid=(95,0,0)
GPGPU-Sim PTX: 27300000 instructions simulated : ctaid=(37,0,0) tid=(95,0,0)
GPGPU-Sim PTX: 27400000 instructions simulated : ctaid=(25,0,0) tid=(127,0,0)
GPGPU-Sim PTX: 27500000 instructions simulated : ctaid=(13,0,0) tid=(127,0,0)
GPGPU-Sim PTX: 27600000 instructions simulated : ctaid=(37,0,0) tid=(127,0,0)
GPGPU-Sim uArch: cycles simulated: 79500  inst.: 27592864 (ipc=347.1) sim_rate=452342 (inst/sec) elapsed = 0:0:01:01 / Wed Mar  2 01:14:24 2016
GPGPU-Sim PTX: 27700000 instructions simulated : ctaid=(73,0,0) tid=(95,0,0)
GPGPU-Sim PTX: 27800000 instructions simulated : ctaid=(64,0,0) tid=(95,0,0)
GPGPU-Sim PTX: 27900000 instructions simulated : ctaid=(43,0,0) tid=(95,0,0)
GPGPU-Sim uArch: cycles simulated: 80500  inst.: 27899328 (ipc=346.6) sim_rate=449989 (inst/sec) elapsed = 0:0:01:02 / Wed Mar  2 01:14:25 2016
GPGPU-Sim PTX: 28000000 instructions simulated : ctaid=(33,0,0) tid=(127,0,0)
GPGPU-Sim PTX: 28100000 instructions simulated : ctaid=(63,0,0) tid=(127,0,0)
GPGPU-Sim PTX: 28200000 instructions simulated : ctaid=(56,0,0) tid=(95,0,0)
GPGPU-Sim PTX: 28300000 instructions simulated : ctaid=(72,0,0) tid=(95,0,0)
GPGPU-Sim PTX: 28400000 instructions simulated : ctaid=(105,0,0) tid=(31,0,0)
GPGPU-Sim uArch: cycles simulated: 82000  inst.: 28390176 (ipc=346.2) sim_rate=450637 (inst/sec) elapsed = 0:0:01:03 / Wed Mar  2 01:14:26 2016
GPGPU-Sim PTX: 28500000 instructions simulated : ctaid=(40,0,0) tid=(31,0,0)
GPGPU-Sim PTX: 28600000 instructions simulated : ctaid=(13,0,0) tid=(127,0,0)
GPGPU-Sim PTX: 28700000 instructions simulated : ctaid=(56,0,0) tid=(63,0,0)
GPGPU-Sim PTX: 28800000 instructions simulated : ctaid=(21,0,0) tid=(63,0,0)
GPGPU-Sim uArch: cycles simulated: 83500  inst.: 28849504 (ipc=345.5) sim_rate=450773 (inst/sec) elapsed = 0:0:01:04 / Wed Mar  2 01:14:27 2016
GPGPU-Sim PTX: 28900000 instructions simulated : ctaid=(31,0,0) tid=(127,0,0)
GPGPU-Sim PTX: 29000000 instructions simulated : ctaid=(10,0,0) tid=(63,0,0)
GPGPU-Sim PTX: 29100000 instructions simulated : ctaid=(31,0,0) tid=(31,0,0)
GPGPU-Sim PTX: 29200000 instructions simulated : ctaid=(23,0,0) tid=(127,0,0)
GPGPU-Sim PTX: 29300000 instructions simulated : ctaid=(28,0,0) tid=(63,0,0)
GPGPU-Sim uArch: cycles simulated: 85000  inst.: 29267584 (ipc=344.3) sim_rate=450270 (inst/sec) elapsed = 0:0:01:05 / Wed Mar  2 01:14:28 2016
GPGPU-Sim PTX: 29400000 instructions simulated : ctaid=(0,0,0) tid=(31,0,0)
GPGPU-Sim PTX: 29500000 instructions simulated : ctaid=(35,0,0) tid=(31,0,0)
GPGPU-Sim PTX: 29600000 instructions simulated : ctaid=(75,0,0) tid=(31,0,0)
GPGPU-Sim PTX: 29700000 instructions simulated : ctaid=(76,0,0) tid=(31,0,0)
GPGPU-Sim uArch: cycles simulated: 86500  inst.: 29728224 (ipc=343.7) sim_rate=450427 (inst/sec) elapsed = 0:0:01:06 / Wed Mar  2 01:14:29 2016
GPGPU-Sim PTX: 29800000 instructions simulated : ctaid=(42,0,0) tid=(127,0,0)
GPGPU-Sim PTX: 29900000 instructions simulated : ctaid=(28,0,0) tid=(127,0,0)
GPGPU-Sim PTX: 30000000 instructions simulated : ctaid=(9,0,0) tid=(63,0,0)
GPGPU-Sim PTX: 30100000 instructions simulated : ctaid=(21,0,0) tid=(127,0,0)
GPGPU-Sim PTX: 30200000 instructions simulated : ctaid=(80,0,0) tid=(95,0,0)
GPGPU-Sim uArch: cycles simulated: 88000  inst.: 30174400 (ipc=342.9) sim_rate=450364 (inst/sec) elapsed = 0:0:01:07 / Wed Mar  2 01:14:30 2016
GPGPU-Sim PTX: 30300000 instructions simulated : ctaid=(101,0,0) tid=(95,0,0)
GPGPU-Sim PTX: 30400000 instructions simulated : ctaid=(67,0,0) tid=(127,0,0)
GPGPU-Sim PTX: 30500000 instructions simulated : ctaid=(66,0,0) tid=(31,0,0)
GPGPU-Sim uArch: cycles simulated: 89000  inst.: 30486016 (ipc=342.5) sim_rate=448323 (inst/sec) elapsed = 0:0:01:08 / Wed Mar  2 01:14:31 2016
GPGPU-Sim PTX: 30600000 instructions simulated : ctaid=(42,0,0) tid=(31,0,0)
GPGPU-Sim PTX: 30700000 instructions simulated : ctaid=(117,0,0) tid=(31,0,0)
GPGPU-Sim PTX: 30800000 instructions simulated : ctaid=(1,0,0) tid=(63,0,0)
GPGPU-Sim PTX: 30900000 instructions simulated : ctaid=(12,0,0) tid=(63,0,0)
GPGPU-Sim uArch: cycles simulated: 90500  inst.: 30942112 (ipc=341.9) sim_rate=448436 (inst/sec) elapsed = 0:0:01:09 / Wed Mar  2 01:14:32 2016
GPGPU-Sim PTX: 31000000 instructions simulated : ctaid=(58,0,0) tid=(95,0,0)
GPGPU-Sim uArch: Shader 8 finished CTA #0 (90773,0), 7 CTAs running
GPGPU-Sim uArch: core:  8, cta: 0 initialized @(90774,0)
GPGPU-Sim PTX: 31100000 instructions simulated : ctaid=(43,0,0) tid=(63,0,0)
GPGPU-Sim PTX: 31200000 instructions simulated : ctaid=(72,0,0) tid=(127,0,0)
GPGPU-Sim PTX: 31300000 instructions simulated : ctaid=(78,0,0) tid=(95,0,0)
GPGPU-Sim PTX: 31400000 instructions simulated : ctaid=(21,0,0) tid=(127,0,0)
GPGPU-Sim uArch: cycles simulated: 92000  inst.: 31394112 (ipc=341.2) sim_rate=448487 (inst/sec) elapsed = 0:0:01:10 / Wed Mar  2 01:14:33 2016
GPGPU-Sim PTX: 31500000 instructions simulated : ctaid=(93,0,0) tid=(95,0,0)
GPGPU-Sim PTX: 31600000 instructions simulated : ctaid=(17,0,0) tid=(127,0,0)
GPGPU-Sim uArch: Shader 2 finished CTA #0 (92718,0), 7 CTAs running
GPGPU-Sim uArch: core:  2, cta: 0 initialized @(92719,0)
GPGPU-Sim PTX: 31700000 instructions simulated : ctaid=(5,0,0) tid=(63,0,0)
GPGPU-Sim PTX: 31800000 instructions simulated : ctaid=(48,0,0) tid=(127,0,0)
GPGPU-Sim uArch: cycles simulated: 93500  inst.: 31843648 (ipc=340.6) sim_rate=448502 (inst/sec) elapsed = 0:0:01:11 / Wed Mar  2 01:14:34 2016
GPGPU-Sim PTX: 31900000 instructions simulated : ctaid=(58,0,0) tid=(31,0,0)
GPGPU-Sim uArch: Shader 13 finished CTA #0 (93662,0), 7 CTAs running
GPGPU-Sim uArch: core: 13, cta: 0 initialized @(93663,0)
GPGPU-Sim PTX: 32000000 instructions simulated : ctaid=(85,0,0) tid=(63,0,0)
GPGPU-Sim PTX: 32100000 instructions simulated : ctaid=(18,0,0) tid=(63,0,0)
GPGPU-Sim uArch: Shader 1 finished CTA #0 (94407,0), 7 CTAs running
GPGPU-Sim uArch: core:  1, cta: 0 initialized @(94408,0)
GPGPU-Sim uArch: cycles simulated: 94500  inst.: 32141568 (ipc=340.1) sim_rate=446410 (inst/sec) elapsed = 0:0:01:12 / Wed Mar  2 01:14:35 2016
GPGPU-Sim PTX: 32200000 instructions simulated : ctaid=(34,0,0) tid=(127,0,0)
GPGPU-Sim uArch: Shader 7 finished CTA #0 (94695,0), 7 CTAs running
GPGPU-Sim uArch: core:  7, cta: 0 initialized @(94696,0)
GPGPU-Sim PTX: 32300000 instructions simulated : ctaid=(94,0,0) tid=(95,0,0)
GPGPU-Sim uArch: Shader 9 finished CTA #0 (94901,0), 7 CTAs running
GPGPU-Sim uArch: core:  9, cta: 0 initialized @(94902,0)
GPGPU-Sim PTX: 32400000 instructions simulated : ctaid=(78,0,0) tid=(63,0,0)
GPGPU-Sim PTX: 32500000 instructions simulated : ctaid=(64,0,0) tid=(95,0,0)
GPGPU-Sim PTX: 32600000 instructions simulated : ctaid=(72,0,0) tid=(63,0,0)
GPGPU-Sim PTX: 32700000 instructions simulated : ctaid=(90,0,0) tid=(63,0,0)
GPGPU-Sim uArch: cycles simulated: 96000  inst.: 32664448 (ipc=340.3) sim_rate=447458 (inst/sec) elapsed = 0:0:01:13 / Wed Mar  2 01:14:36 2016
GPGPU-Sim PTX: 32800000 instructions simulated : ctaid=(34,0,0) tid=(63,0,0)
GPGPU-Sim uArch: Shader 4 finished CTA #1 (96455,0), 7 CTAs running
GPGPU-Sim uArch: core:  4, cta: 1 initialized @(96456,0)
GPGPU-Sim uArch: Shader 11 finished CTA #0 (96557,0), 7 CTAs running
GPGPU-Sim uArch: core: 11, cta: 0 initialized @(96558,0)
GPGPU-Sim PTX: 32900000 instructions simulated : ctaid=(81,0,0) tid=(95,0,0)
GPGPU-Sim PTX: 33000000 instructions simulated : ctaid=(52,0,0) tid=(31,0,0)
GPGPU-Sim uArch: Shader 0 finished CTA #0 (96878,0), 7 CTAs running
GPGPU-Sim uArch: core:  0, cta: 0 initialized @(96879,0)
GPGPU-Sim PTX: 33100000 instructions simulated : ctaid=(115,0,0) tid=(31,0,0)
GPGPU-Sim uArch: Shader 3 finished CTA #0 (97306,0), 7 CTAs running
GPGPU-Sim uArch: core:  3, cta: 0 initialized @(97307,0)
GPGPU-Sim PTX: 33200000 instructions simulated : ctaid=(53,0,0) tid=(127,0,0)
GPGPU-Sim uArch: Shader 14 finished CTA #0 (97489,0), 7 CTAs running
GPGPU-Sim uArch: core: 14, cta: 0 initialized @(97490,0)
GPGPU-Sim uArch: cycles simulated: 97500  inst.: 33174432 (ipc=340.3) sim_rate=448303 (inst/sec) elapsed = 0:0:01:14 / Wed Mar  2 01:14:37 2016
GPGPU-Sim uArch: Shader 11 finished CTA #1 (97704,0), 7 CTAs running
GPGPU-Sim uArch: core: 11, cta: 1 initialized @(97705,0)
GPGPU-Sim uArch: Shader 12 finished CTA #0 (97778,0), 7 CTAs running
GPGPU-Sim uArch: core: 12, cta: 0 initialized @(97779,0)
GPGPU-Sim PTX: 33300000 instructions simulated : ctaid=(50,0,0) tid=(63,0,0)
GPGPU-Sim uArch: Shader 6 finished CTA #0 (97982,0), 7 CTAs running
GPGPU-Sim uArch: core:  6, cta: 0 initialized @(97983,0)
GPGPU-Sim PTX: 33400000 instructions simulated : ctaid=(103,0,0) tid=(95,0,0)
GPGPU-Sim uArch: Shader 9 finished CTA #1 (98243,0), 7 CTAs running
GPGPU-Sim uArch: core:  9, cta: 1 initialized @(98244,0)
GPGPU-Sim PTX: 33500000 instructions simulated : ctaid=(112,0,0) tid=(31,0,0)
GPGPU-Sim uArch: cycles simulated: 98500  inst.: 33498624 (ipc=340.1) sim_rate=446648 (inst/sec) elapsed = 0:0:01:15 / Wed Mar  2 01:14:38 2016
GPGPU-Sim PTX: 33600000 instructions simulated : ctaid=(64,0,0) tid=(63,0,0)
GPGPU-Sim PTX: 33700000 instructions simulated : ctaid=(98,0,0) tid=(31,0,0)
GPGPU-Sim PTX: 33800000 instructions simulated : ctaid=(118,0,0) tid=(95,0,0)
GPGPU-Sim uArch: Shader 8 finished CTA #1 (99398,0), 7 CTAs running
GPGPU-Sim uArch: core:  8, cta: 1 initialized @(99399,0)
GPGPU-Sim uArch: Shader 2 finished CTA #1 (99516,0), 7 CTAs running
GPGPU-Sim uArch: core:  2, cta: 1 initialized @(99517,0)
GPGPU-Sim PTX: 33900000 instructions simulated : ctaid=(113,0,0) tid=(95,0,0)
GPGPU-Sim PTX: 34000000 instructions simulated : ctaid=(83,0,0) tid=(127,0,0)
GPGPU-Sim uArch: Shader 10 finished CTA #0 (99967,0), 7 CTAs running
GPGPU-Sim uArch: core: 10, cta: 0 initialized @(99968,0)
GPGPU-Sim uArch: cycles simulated: 100000  inst.: 34006880 (ipc=340.1) sim_rate=447458 (inst/sec) elapsed = 0:0:01:16 / Wed Mar  2 01:14:39 2016
GPGPU-Sim uArch: Shader 3 finished CTA #1 (100117,0), 7 CTAs running
GPGPU-Sim uArch: core:  3, cta: 1 initialized @(100118,0)
GPGPU-Sim PTX: 34100000 instructions simulated : ctaid=(109,0,0) tid=(63,0,0)
GPGPU-Sim uArch: Shader 4 finished CTA #0 (100372,0), 7 CTAs running
GPGPU-Sim uArch: core:  4, cta: 0 initialized @(100373,0)
GPGPU-Sim PTX: 34200000 instructions simulated : ctaid=(137,0,0) tid=(31,0,0)
GPGPU-Sim PTX: 34300000 instructions simulated : ctaid=(50,0,0) tid=(127,0,0)
GPGPU-Sim uArch: Shader 5 finished CTA #0 (100738,0), 7 CTAs running
GPGPU-Sim uArch: core:  5, cta: 0 initialized @(100739,0)
GPGPU-Sim uArch: cycles simulated: 101000  inst.: 34353376 (ipc=340.1) sim_rate=446147 (inst/sec) elapsed = 0:0:01:17 / Wed Mar  2 01:14:40 2016
GPGPU-Sim PTX: 34400000 instructions simulated : ctaid=(104,0,0) tid=(95,0,0)
GPGPU-Sim uArch: Shader 1 finished CTA #1 (101160,0), 7 CTAs running
GPGPU-Sim uArch: core:  1, cta: 1 initialized @(101161,0)
GPGPU-Sim uArch: Shader 0 finished CTA #1 (101171,0), 7 CTAs running
GPGPU-Sim uArch: core:  0, cta: 1 initialized @(101172,0)
GPGPU-Sim PTX: 34500000 instructions simulated : ctaid=(102,0,0) tid=(95,0,0)
GPGPU-Sim PTX: 34600000 instructions simulated : ctaid=(76,0,0) tid=(63,0,0)
GPGPU-Sim uArch: Shader 12 finished CTA #1 (101697,0), 7 CTAs running
GPGPU-Sim uArch: core: 12, cta: 1 initialized @(101698,0)
GPGPU-Sim PTX: 34700000 instructions simulated : ctaid=(76,0,0) tid=(95,0,0)
GPGPU-Sim PTX: 34800000 instructions simulated : ctaid=(68,0,0) tid=(127,0,0)
GPGPU-Sim uArch: cycles simulated: 102500  inst.: 34857088 (ipc=340.1) sim_rate=446885 (inst/sec) elapsed = 0:0:01:18 / Wed Mar  2 01:14:41 2016
GPGPU-Sim PTX: 34900000 instructions simulated : ctaid=(82,0,0) tid=(31,0,0)
GPGPU-Sim uArch: Shader 1 finished CTA #2 (102725,0), 7 CTAs running
GPGPU-Sim uArch: core:  1, cta: 2 initialized @(102726,0)
GPGPU-Sim PTX: 35000000 instructions simulated : ctaid=(40,0,0) tid=(127,0,0)
GPGPU-Sim PTX: 35100000 instructions simulated : ctaid=(122,0,0) tid=(95,0,0)
GPGPU-Sim uArch: Shader 7 finished CTA #1 (103188,0), 7 CTAs running
GPGPU-Sim uArch: core:  7, cta: 1 initialized @(103189,0)
GPGPU-Sim PTX: 35200000 instructions simulated : ctaid=(83,0,0) tid=(95,0,0)
GPGPU-Sim PTX: 35300000 instructions simulated : ctaid=(112,0,0) tid=(63,0,0)
GPGPU-Sim uArch: Shader 6 finished CTA #1 (103787,0), 7 CTAs running
GPGPU-Sim uArch: core:  6, cta: 1 initialized @(103788,0)
GPGPU-Sim PTX: 35400000 instructions simulated : ctaid=(66,0,0) tid=(31,0,0)
GPGPU-Sim uArch: Shader 5 finished CTA #1 (103878,0), 7 CTAs running
GPGPU-Sim uArch: core:  5, cta: 1 initialized @(103879,0)
GPGPU-Sim uArch: cycles simulated: 104000  inst.: 35433504 (ipc=340.7) sim_rate=448525 (inst/sec) elapsed = 0:0:01:19 / Wed Mar  2 01:14:42 2016
GPGPU-Sim PTX: 35500000 instructions simulated : ctaid=(80,0,0) tid=(95,0,0)
GPGPU-Sim uArch: Shader 14 finished CTA #1 (104281,0), 7 CTAs running
GPGPU-Sim uArch: core: 14, cta: 1 initialized @(104282,0)
GPGPU-Sim PTX: 35600000 instructions simulated : ctaid=(105,0,0) tid=(63,0,0)
GPGPU-Sim PTX: 35700000 instructions simulated : ctaid=(91,0,0) tid=(63,0,0)
GPGPU-Sim PTX: 35800000 instructions simulated : ctaid=(35,0,0) tid=(127,0,0)
GPGPU-Sim uArch: Shader 9 finished CTA #2 (104869,0), 7 CTAs running
GPGPU-Sim uArch: core:  9, cta: 2 initialized @(104870,0)
GPGPU-Sim uArch: cycles simulated: 105000  inst.: 35809856 (ipc=341.0) sim_rate=447623 (inst/sec) elapsed = 0:0:01:20 / Wed Mar  2 01:14:43 2016
GPGPU-Sim PTX: 35900000 instructions simulated : ctaid=(89,0,0) tid=(95,0,0)
GPGPU-Sim PTX: 36000000 instructions simulated : ctaid=(100,0,0) tid=(63,0,0)
GPGPU-Sim uArch: Shader 10 finished CTA #2 (105534,0), 7 CTAs running
GPGPU-Sim uArch: core: 10, cta: 2 initialized @(105535,0)
GPGPU-Sim PTX: 36100000 instructions simulated : ctaid=(102,0,0) tid=(63,0,0)
GPGPU-Sim uArch: Shader 13 finished CTA #1 (105763,0), 7 CTAs running
GPGPU-Sim uArch: core: 13, cta: 1 initialized @(105764,0)
GPGPU-Sim PTX: 36200000 instructions simulated : ctaid=(81,0,0) tid=(95,0,0)
GPGPU-Sim PTX: 36300000 instructions simulated : ctaid=(129,0,0) tid=(95,0,0)
GPGPU-Sim uArch: Shader 10 finished CTA #1 (106439,0), 7 CTAs running
GPGPU-Sim uArch: core: 10, cta: 1 initialized @(106440,0)
GPGPU-Sim uArch: cycles simulated: 106500  inst.: 36349088 (ipc=341.3) sim_rate=448754 (inst/sec) elapsed = 0:0:01:21 / Wed Mar  2 01:14:44 2016
GPGPU-Sim PTX: 36400000 instructions simulated : ctaid=(56,0,0) tid=(63,0,0)
GPGPU-Sim PTX: 36500000 instructions simulated : ctaid=(128,0,0) tid=(31,0,0)
GPGPU-Sim PTX: 36600000 instructions simulated : ctaid=(89,0,0) tid=(95,0,0)
GPGPU-Sim uArch: Shader 2 finished CTA #2 (107237,0), 7 CTAs running
GPGPU-Sim uArch: core:  2, cta: 2 initialized @(107238,0)
GPGPU-Sim PTX: 36700000 instructions simulated : ctaid=(48,0,0) tid=(63,0,0)
GPGPU-Sim uArch: cycles simulated: 107500  inst.: 36708064 (ipc=341.5) sim_rate=447659 (inst/sec) elapsed = 0:0:01:22 / Wed Mar  2 01:14:45 2016
GPGPU-Sim PTX: 36800000 instructions simulated : ctaid=(97,0,0) tid=(31,0,0)
GPGPU-Sim PTX: 36900000 instructions simulated : ctaid=(94,0,0) tid=(63,0,0)
GPGPU-Sim uArch: Shader 0 finished CTA #2 (108032,0), 7 CTAs running
GPGPU-Sim uArch: core:  0, cta: 2 initialized @(108033,0)
GPGPU-Sim PTX: 37000000 instructions simulated : ctaid=(91,0,0) tid=(63,0,0)
GPGPU-Sim uArch: Shader 12 finished CTA #2 (108395,0), 7 CTAs running
GPGPU-Sim uArch: core: 12, cta: 2 initialized @(108396,0)
GPGPU-Sim uArch: Shader 11 finished CTA #2 (108439,0), 7 CTAs running
GPGPU-Sim uArch: core: 11, cta: 2 initialized @(108440,0)
GPGPU-Sim PTX: 37100000 instructions simulated : ctaid=(148,0,0) tid=(31,0,0)
GPGPU-Sim PTX: 37200000 instructions simulated : ctaid=(98,0,0) tid=(95,0,0)
GPGPU-Sim uArch: Shader 5 finished CTA #2 (108848,0), 7 CTAs running
GPGPU-Sim uArch: core:  5, cta: 2 initialized @(108849,0)
GPGPU-Sim uArch: cycles simulated: 109000  inst.: 37227904 (ipc=341.5) sim_rate=448528 (inst/sec) elapsed = 0:0:01:23 / Wed Mar  2 01:14:46 2016
GPGPU-Sim PTX: 37300000 instructions simulated : ctaid=(79,0,0) tid=(63,0,0)
GPGPU-Sim PTX: 37400000 instructions simulated : ctaid=(81,0,0) tid=(63,0,0)
GPGPU-Sim uArch: Shader 4 finished CTA #2 (109408,0), 7 CTAs running
GPGPU-Sim uArch: core:  4, cta: 2 initialized @(109409,0)
GPGPU-Sim PTX: 37500000 instructions simulated : ctaid=(74,0,0) tid=(127,0,0)
GPGPU-Sim PTX: 37600000 instructions simulated : ctaid=(133,0,0) tid=(31,0,0)
GPGPU-Sim PTX: 37700000 instructions simulated : ctaid=(81,0,0) tid=(95,0,0)
GPGPU-Sim PTX: 37800000 instructions simulated : ctaid=(105,0,0) tid=(31,0,0)
GPGPU-Sim uArch: cycles simulated: 110500  inst.: 37784064 (ipc=341.9) sim_rate=449810 (inst/sec) elapsed = 0:0:01:24 / Wed Mar  2 01:14:47 2016
GPGPU-Sim uArch: Shader 3 finished CTA #2 (110652,0), 7 CTAs running
GPGPU-Sim uArch: core:  3, cta: 2 initialized @(110653,0)
GPGPU-Sim PTX: 37900000 instructions simulated : ctaid=(84,0,0) tid=(31,0,0)
GPGPU-Sim uArch: Shader 8 finished CTA #2 (110824,0), 7 CTAs running
GPGPU-Sim uArch: core:  8, cta: 2 initialized @(110825,0)
GPGPU-Sim uArch: Shader 13 finished CTA #2 (110918,0), 7 CTAs running
GPGPU-Sim uArch: core: 13, cta: 2 initialized @(110919,0)
GPGPU-Sim PTX: 38000000 instructions simulated : ctaid=(145,0,0) tid=(95,0,0)
GPGPU-Sim PTX: 38100000 instructions simulated : ctaid=(77,0,0) tid=(31,0,0)
GPGPU-Sim uArch: cycles simulated: 111500  inst.: 38119904 (ipc=341.9) sim_rate=448469 (inst/sec) elapsed = 0:0:01:25 / Wed Mar  2 01:14:48 2016
GPGPU-Sim PTX: 38200000 instructions simulated : ctaid=(45,0,0) tid=(127,0,0)
GPGPU-Sim PTX: 38300000 instructions simulated : ctaid=(118,0,0) tid=(63,0,0)
GPGPU-Sim PTX: 38400000 instructions simulated : ctaid=(80,0,0) tid=(95,0,0)
GPGPU-Sim uArch: Shader 6 finished CTA #2 (112263,0), 7 CTAs running
GPGPU-Sim uArch: core:  6, cta: 2 initialized @(112264,0)
GPGPU-Sim PTX: 38500000 instructions simulated : ctaid=(116,0,0) tid=(95,0,0)
GPGPU-Sim PTX: 38600000 instructions simulated : ctaid=(91,0,0) tid=(31,0,0)
GPGPU-Sim PTX: 38700000 instructions simulated : ctaid=(47,0,0) tid=(63,0,0)
GPGPU-Sim uArch: cycles simulated: 113000  inst.: 38653024 (ipc=342.1) sim_rate=449453 (inst/sec) elapsed = 0:0:01:26 / Wed Mar  2 01:14:49 2016
GPGPU-Sim PTX: 38800000 instructions simulated : ctaid=(112,0,0) tid=(31,0,0)
GPGPU-Sim PTX: 38900000 instructions simulated : ctaid=(87,0,0) tid=(63,0,0)
GPGPU-Sim PTX: 39000000 instructions simulated : ctaid=(103,0,0) tid=(95,0,0)
GPGPU-Sim uArch: Shader 14 finished CTA #2 (114110,0), 7 CTAs running
GPGPU-Sim uArch: core: 14, cta: 2 initialized @(114111,0)
GPGPU-Sim PTX: 39100000 instructions simulated : ctaid=(118,0,0) tid=(31,0,0)
GPGPU-Sim uArch: Shader 7 finished CTA #2 (114306,0), 7 CTAs running
GPGPU-Sim uArch: core:  7, cta: 2 initialized @(114307,0)
GPGPU-Sim PTX: 39200000 instructions simulated : ctaid=(164,0,0) tid=(127,0,0)
GPGPU-Sim uArch: cycles simulated: 114500  inst.: 39198496 (ipc=342.3) sim_rate=450557 (inst/sec) elapsed = 0:0:01:27 / Wed Mar  2 01:14:50 2016
GPGPU-Sim PTX: 39300000 instructions simulated : ctaid=(52,0,0) tid=(63,0,0)
GPGPU-Sim PTX: 39400000 instructions simulated : ctaid=(68,0,0) tid=(63,0,0)
GPGPU-Sim PTX: 39500000 instructions simulated : ctaid=(136,0,0) tid=(31,0,0)
GPGPU-Sim uArch: cycles simulated: 115500  inst.: 39542912 (ipc=342.4) sim_rate=449351 (inst/sec) elapsed = 0:0:01:28 / Wed Mar  2 01:14:51 2016
GPGPU-Sim PTX: 39600000 instructions simulated : ctaid=(64,0,0) tid=(127,0,0)
GPGPU-Sim PTX: 39700000 instructions simulated : ctaid=(73,0,0) tid=(127,0,0)
GPGPU-Sim PTX: 39800000 instructions simulated : ctaid=(151,0,0) tid=(31,0,0)
GPGPU-Sim PTX: 39900000 instructions simulated : ctaid=(155,0,0) tid=(31,0,0)
GPGPU-Sim PTX: 40000000 instructions simulated : ctaid=(96,0,0) tid=(95,0,0)
GPGPU-Sim PTX: 40100000 instructions simulated : ctaid=(139,0,0) tid=(95,0,0)
GPGPU-Sim uArch: cycles simulated: 117000  inst.: 40070240 (ipc=342.5) sim_rate=450227 (inst/sec) elapsed = 0:0:01:29 / Wed Mar  2 01:14:52 2016
GPGPU-Sim PTX: 40200000 instructions simulated : ctaid=(61,0,0) tid=(63,0,0)
GPGPU-Sim PTX: 40300000 instructions simulated : ctaid=(133,0,0) tid=(31,0,0)
GPGPU-Sim PTX: 40400000 instructions simulated : ctaid=(80,0,0) tid=(63,0,0)
GPGPU-Sim PTX: 40500000 instructions simulated : ctaid=(96,0,0) tid=(127,0,0)
GPGPU-Sim PTX: 40600000 instructions simulated : ctaid=(105,0,0) tid=(31,0,0)
GPGPU-Sim uArch: cycles simulated: 118500  inst.: 40599648 (ipc=342.6) sim_rate=451107 (inst/sec) elapsed = 0:0:01:30 / Wed Mar  2 01:14:53 2016
GPGPU-Sim PTX: 40700000 instructions simulated : ctaid=(132,0,0) tid=(63,0,0)
GPGPU-Sim uArch: Shader 1 finished CTA #3 (118887,0), 7 CTAs running
GPGPU-Sim uArch: core:  1, cta: 3 initialized @(118888,0)
GPGPU-Sim PTX: 40800000 instructions simulated : ctaid=(126,0,0) tid=(95,0,0)
GPGPU-Sim PTX: 40900000 instructions simulated : ctaid=(155,0,0) tid=(31,0,0)
GPGPU-Sim PTX: 41000000 instructions simulated : ctaid=(152,0,0) tid=(31,0,0)
GPGPU-Sim uArch: cycles simulated: 119500  inst.: 40956416 (ipc=342.7) sim_rate=450070 (inst/sec) elapsed = 0:0:01:31 / Wed Mar  2 01:14:54 2016
GPGPU-Sim uArch: Shader 9 finished CTA #3 (119641,0), 7 CTAs running
GPGPU-Sim uArch: core:  9, cta: 3 initialized @(119642,0)
GPGPU-Sim PTX: 41100000 instructions simulated : ctaid=(140,0,0) tid=(95,0,0)
GPGPU-Sim PTX: 41200000 instructions simulated : ctaid=(112,0,0) tid=(127,0,0)
GPGPU-Sim PTX: 41300000 instructions simulated : ctaid=(108,0,0) tid=(127,0,0)
GPGPU-Sim PTX: 41400000 instructions simulated : ctaid=(93,0,0) tid=(31,0,0)
GPGPU-Sim PTX: 41500000 instructions simulated : ctaid=(162,0,0) tid=(31,0,0)
GPGPU-Sim uArch: cycles simulated: 121000  inst.: 41484480 (ipc=342.8) sim_rate=450918 (inst/sec) elapsed = 0:0:01:32 / Wed Mar  2 01:14:55 2016
GPGPU-Sim uArch: Shader 8 finished CTA #3 (121125,0), 7 CTAs running
GPGPU-Sim uArch: core:  8, cta: 3 initialized @(121126,0)
GPGPU-Sim PTX: 41600000 instructions simulated : ctaid=(104,0,0) tid=(31,0,0)
GPGPU-Sim PTX: 41700000 instructions simulated : ctaid=(118,0,0) tid=(95,0,0)
GPGPU-Sim PTX: 41800000 instructions simulated : ctaid=(115,0,0) tid=(63,0,0)
GPGPU-Sim uArch: Shader 0 finished CTA #3 (121873,0), 7 CTAs running
GPGPU-Sim uArch: core:  0, cta: 3 initialized @(121874,0)
GPGPU-Sim uArch: cycles simulated: 122000  inst.: 41826144 (ipc=342.8) sim_rate=449743 (inst/sec) elapsed = 0:0:01:33 / Wed Mar  2 01:14:56 2016
GPGPU-Sim PTX: 41900000 instructions simulated : ctaid=(161,0,0) tid=(31,0,0)
GPGPU-Sim PTX: 42000000 instructions simulated : ctaid=(110,0,0) tid=(63,0,0)
GPGPU-Sim PTX: 42100000 instructions simulated : ctaid=(55,0,0) tid=(63,0,0)
GPGPU-Sim PTX: 42200000 instructions simulated : ctaid=(71,0,0) tid=(127,0,0)
GPGPU-Sim PTX: 42300000 instructions simulated : ctaid=(133,0,0) tid=(31,0,0)
GPGPU-Sim PTX: 42400000 instructions simulated : ctaid=(81,0,0) tid=(63,0,0)
GPGPU-Sim uArch: cycles simulated: 123500  inst.: 42375488 (ipc=343.1) sim_rate=450803 (inst/sec) elapsed = 0:0:01:34 / Wed Mar  2 01:14:57 2016
GPGPU-Sim PTX: 42500000 instructions simulated : ctaid=(143,0,0) tid=(31,0,0)
GPGPU-Sim uArch: Shader 12 finished CTA #3 (123900,0), 7 CTAs running
GPGPU-Sim uArch: core: 12, cta: 3 initialized @(123901,0)
GPGPU-Sim PTX: 42600000 instructions simulated : ctaid=(140,0,0) tid=(95,0,0)
GPGPU-Sim PTX: 42700000 instructions simulated : ctaid=(119,0,0) tid=(63,0,0)
[...]
dq_lat_table:0 	0 	0 	0 	0 	0 	0 	0 	0 	0 	0 	0 	0 	0 	0 	0 	0 	0 	0 	0 	0 	0 	0 	0 	0 	0 	0 	0 	0 	0 	0 	0 	
mf_lat_table:0 	0 	0 	0 	0 	0 	0 	4 	11392 	118495 	180572 	2052 	0 	0 	0 	0 	0 	0 	0 	0 	0 	0 	0 	0 	0 	0 	0 	0 	0 	0 	0 	0 	
icnt2mem_lat_table:0 	0 	0 	12835 	4779 	14109 	42540 	50675 	107520 	78234 	1943 	0 	0 	0 	0 	0 	0 	0 	0 	0 	0 	0 	0 	0 	
icnt2sh_lat_table:0 	0 	0 	167340 	20032 	143 	0 	0 	0 	0 	0 	0 	864 	1821 	3661 	7444 	14441 	30165 	60505 	6099 	0 	0 	0 	0 	
mf_lat_pw_table:0 	0 	0 	0 	0 	0 	0 	0 	35 	40 	1040 	0 	0 	0 	0 	0 	0 	0 	0 	0 	0 	0 	0 	0 	0 	0 	0 	0 	0 	0 	0 	0 	
maximum concurrent accesses to same row:
dram[0]:        26        26        14        26        20        26        32        40        16        26        26        30        32        30        20        26 
dram[1]:        21        26        14        14        20        20        32        40        12        16        26        28        32        30        22        14 
dram[2]:        26        26        20        18        32        24        32        38        20        16        22        32        32        30        24        20 
dram[3]:        26        26        14        20        20        28        32        32        18        20        28        28        32        30        18        22 
dram[4]:        26        26        22        20        26        22        44        32        24        18        28        28        30        30        26        20 
dram[5]:        26        26        14        18        24        22        32        32        16        14        22        32        30        30        20        20 
maximum service time to same row:
dram[0]:      4105      4214      6122      5468      4179      3077      2775      2792      8349      6546      2735      2907      3641      4791      8004      5685 
dram[1]:      2949      4345      5044      5261      4191      2790      2823      2831      7612      5864      2821      3196      4861      4841      7394      5757 
dram[2]:      2674      4350      5418      5926      2765      2737      2778      2807      5709      6350      2808      2874      3753      6015      5316      5194 
dram[3]:      3481      3838      5585      5100      2758      3234      2861      2812      6339      6382      2927      2810      3844      4079      5357      5216 
dram[4]:      3981      3818      4952      5719      2770      2751      2750      2811      5424      5618      3043      2708      5876      2890      5713      5232 
dram[5]:      3819      4126      5121      5232      2703      2726      2753      2812      5468      4964      2900      3160      5796      3551      5429      5274 
average row accesses per activate:
dram[0]:  1.552704  1.541497  1.527420  1.522267  1.562759  1.549402  1.573049  1.588337  1.531972  1.527880  1.553820  1.564979  1.556992  1.550661  1.552765  1.550661 
dram[1]:  1.515536  1.530047  1.509030  1.516639  1.515719  1.531081  1.549086  1.566051  1.502791  1.512227  1.541779  1.521783  1.516739  1.544381  1.518248  1.539186 
dram[2]:  1.549710  1.563298  1.539406  1.542564  1.545176  1.553425  1.574673  1.584488  1.525842  1.536086  1.565515  1.565515  1.543339  1.550135  1.542299  1.561242 
dram[3]:  1.513514  1.521316  1.509535  1.509030  1.521827  1.525219  1.549611  1.550135  1.519256  1.513728  1.531972  1.524825  1.544381  1.529412  1.531972  1.543339 
dram[4]:  1.535908  1.539925  1.528455  1.517659  1.536271  1.540238  1.569273  1.569811  1.530435  1.531972  1.545424  1.556463  1.542299  1.558583  1.549611  1.563375 
dram[5]:  1.528143  1.525926  1.498505  1.508021  1.515212  1.521127  1.538151  1.542819  1.498854  1.510730  1.530435  1.532485  1.527370  1.535055  1.530947  1.538669 
average row locality = 437509/284562 = 1.537482
number of total memory accesses made:
dram[0]:         0         0         0         0         0         0         0         0         0         0         0         0         0         0         0         0 
dram[1]:         0         0         0         0         0         0         0         0         0         0         0         0         0         0         0         0 
dram[2]:         0         0         0         0         0         0         0         0         0         0         0         0         0         0         0         0 
dram[3]:         0         0         0         0         0         0         0         0         0         0         0         0         0         0         0         0 
dram[4]:         0         0         0         0         0         0         0         0         0         0         0         0         0         0         0         0 
dram[5]:         0         0         0         0         0         0         0         0         0         0         0         0         0         0         0         0 
total accesses: 0
min_bank_accesses = 0!
min_chip_accesses = 0!
number of total read accesses:
dram[0]:      3251      3246      3232      3232      3242      3242      3264      3264      3264      3264      3264      3264      3264      3264      3264      3264 
dram[1]:      3250      3246      3232      3232      3242      3242      3264      3264      3264      3264      3264      3264      3264      3264      3264      3264 
dram[2]:      3250      3246      3232      3232      3242      3244      3264      3264      3264      3264      3264      3264      3264      3264      3264      3264 
dram[3]:      3250      3246      3232      3232      3242      3244      3264      3264      3264      3264      3264      3264      3264      3264      3264      3264 
dram[4]:      3248      3246      3232      3232      3242      3244      3264      3264      3264      3264      3264      3264      3264      3264      3264      3264 
dram[5]:      3248      3246      3232      3232      3242      3244      3264      3264      3264      3264      3264      3264      3264      3264      3264      3264 
total reads: 312509
bank skew: 3264/3232 = 1.01
chip skew: 52086/52084 = 1.00
number of total write accesses:
dram[0]:      1286      1286      1280      1280      1290      1290      1312      1312      1312      1312      1312      1312      1312      1312      1312      1312 
dram[1]:      1286      1286      1280      1280      1290      1290      1312      1312      1312      1312      1312      1312      1312      1312      1312      1312 
dram[2]:      1286      1286      1280      1280      1290      1292      1312      1312      1312      1312      1312      1312      1312      1312      1312      1312 
dram[3]:      1286      1286      1280      1280      1290      1292      1312      1312      1312      1312      1312      1312      1312      1312      1312      1312 
dram[4]:      1286      1286      1280      1280      1290      1292      1312      1312      1312      1312      1312      1312      1312      1312      1312      1312 
dram[5]:      1286      1286      1280      1280      1290      1292      1312      1312      1312      1312      1312      1312      1312      1312      1312      1312 
total reads: 125000
bank skew: 1312/1280 = 1.02
chip skew: 20834/20832 = 1.00
average mf latency per bank:
dram[0]:        733       737       741       744       753       768       772       788       742       743       736       752       748       748       777       802
dram[1]:        711       738       733       756       730       760       751       799       720       747       717       741       726       767       751       804
dram[2]:        901       886       912       902       918       906       928       945       904       888       900       901       903       915       946       938
dram[3]:        666       663       680       675       695       685       701       707       675       664       680       663       689       682       714       723
dram[4]:        855       874       873       886       875       896       892       916       867       878       865       876       877       901       913       931
dram[5]:        729       735       728       739       746       768       754       773       731       736       731       745       734       745       774       798
maximum mf latency per bank:
dram[0]:       2589      2591      2573      2455      2468      2481      3034      2497      2846      2407      2876      2615      2766      2454      2968      2604
dram[1]:       2159      2589      2074      2798      2455      2332      2191      2509      2319      2429      2289      2253      2108      2258      2312      2565
dram[2]:       2550      2844      2505      3175      2830      2804      3150      2846      2631      2988      2329      2850      2744      3216      2624      3082
dram[3]:       2628      2652      2308      2130      2099      2096      2534      2695      2088      2246      2187      2350      2232      2085      2271      2170
dram[4]:       2293      2778      2421      2626      2484      3557      2640      3393      2630      3071      2607      3032      2559      3125      2514      2896
dram[5]:       2435      2491      2171      2276      2805      2442      2148      2442      2584      2138      2189      2522      2146      2329      2340      3244

Number of Memory Banks Accessed per Memory Operation per Warp (from 0):
0	0	0	0	0	0	0	0	0	0	0	0	0	0	0	0	0	0	0	0	0	0	0	0	0	0	0	0	0	0	0	0	0	0	0	0	0	0	0	0	0	0	0	0	0	0	0	0	0	0	0	0	0	0	0	0	0	0	0	0	0	0	0	0	0	0	0	0	0	0	0	0	0	0	0	0	0	0	0	0	0	0	0	0	0	0	0	0	0	0	0	0	0	0	0	0	
Average # of Memory Banks Accessed per Memory Operation per Warp=-nan

position of mrq chosen
0	0	0	0	0	0	0	0	0	0	0	0	0	0	0	0	

average position of mrq chosen = -nan
Memory Partition 0: 
Cache L2_bank_000:
MSHR contents

Cache L2_bank_001:
MSHR contents

In Dram Latency Queue (total = 0): 
DRAM[0]: 16 bks, busW=4 BL=4 CL=12, tRRD=2 tCCD=6, tRCD=12 tRAS=28 tRP=12 tRC=40
n_cmd=737729 n_nop=352009 n_act=47034 n_pre=47018 n_req=72917 n_rd=208340 n_write=83328 bw_util=0.3954
n_activity=726258 dram_eff=0.4016
bk0: 13004a 371592i bk1: 12984a 367492i bk2: 12928a 348740i bk3: 12928a 338373i bk4: 12968a 325520i bk5: 12968a 308760i bk6: 13056a 283056i bk7: 13056a 261095i bk8: 13056a 363864i bk9: 13056a 352475i bk10: 13056a 346834i bk11: 13056a 337412i bk12: 13056a 316983i bk13: 13056a 304602i bk14: 13056a 283805i bk15: 13056a 259237i 
dram_util_bins: 0 0 0 0 0 0 0 0 0 0
dram_eff_bins: 0 0 0 0 0 0 0 0 0 0
mrqq: max=16 avg=15.245
Memory Partition 1: 
Cache L2_bank_002:
MSHR contents

Cache L2_bank_003:
MSHR contents
MSHR: tag=0x80f20f80, atomic=0 1 entries : 0x7fb0acfdb050 :  mf: uid=10999678, sid09:w31, part=1, addr=0x80f20f80, load , size=128, unknown  status = IN_PARTITION_DRAM (558885), 

In Dram Latency Queue (total = 0): 
DRAM[1]: 16 bks, busW=4 BL=4 CL=12, tRRD=2 tCCD=6, tRCD=12 tRAS=28 tRP=12 tRC=40
n_cmd=737729 n_nop=350564 n_act=47759 n_pre=47743 n_req=72916 n_rd=208335 n_write=83328 bw_util=0.3954
n_activity=726635 dram_eff=0.4014
bk0: 13000a 371035i bk1: 12984a 359075i bk2: 12928a 347757i bk3: 12928a 336286i bk4: 12968a 321093i bk5: 12968a 309631i bk6: 13056a 282940i bk7: 13056a 257602i bk8: 13056a 364510i bk9: 13056a 350829i bk10: 13056a 344642i bk11: 13055a 333623i bk12: 13056a 317753i bk13: 13056a 301714i bk14: 13056a 283318i bk15: 13056a 253798i 
dram_util_bins: 0 0 0 0 0 0 0 0 0 0
dram_eff_bins: 0 0 0 0 0 0 0 0 0 0
mrqq: max=16 avg=15.0522
Memory Partition 2: 
Cache L2_bank_004:
MSHR contents

Cache L2_bank_005:
MSHR contents

In Dram Latency Queue (total = 0): 
DRAM[2]: 16 bks, busW=4 BL=4 CL=12, tRRD=2 tCCD=6, tRCD=12 tRAS=28 tRP=12 tRC=40
n_cmd=737729 n_nop=352129 n_act=46968 n_pre=46952 n_req=72920 n_rd=208344 n_write=83336 bw_util=0.3954
n_activity=725585 dram_eff=0.402
bk0: 13000a 372877i bk1: 12984a 360309i bk2: 12928a 352274i bk3: 12928a 333039i bk4: 12968a 325761i bk5: 12976a 313010i bk6: 13056a 287848i bk7: 13056a 256230i bk8: 13056a 364621i bk9: 13056a 358226i bk10: 13056a 352103i bk11: 13056a 335327i bk12: 13056a 321608i bk13: 13056a 302994i bk14: 13056a 280926i bk15: 13056a 256946i 
dram_util_bins: 0 0 0 0 0 0 0 0 0 0
dram_eff_bins: 0 0 0 0 0 0 0 0 0 0
mrqq: max=16 avg=15.4472
Memory Partition 3: 
Cache L2_bank_006:
MSHR contents

Cache L2_bank_007:
MSHR contents

In Dram Latency Queue (total = 0): 
DRAM[3]: 16 bks, busW=4 BL=4 CL=12, tRRD=2 tCCD=6, tRCD=12 tRAS=28 tRP=12 tRC=40
n_cmd=737729 n_nop=350581 n_act=47742 n_pre=47726 n_req=72920 n_rd=208344 n_write=83336 bw_util=0.3954
n_activity=726232 dram_eff=0.4016
bk0: 13000a 371440i bk1: 12984a 357398i bk2: 12928a 344647i bk3: 12928a 339087i bk4: 12968a 322115i bk5: 12976a 306070i bk6: 13056a 287567i bk7: 13056a 254506i bk8: 13056a 361954i bk9: 13056a 353070i bk10: 13056a 343125i bk11: 13056a 333855i bk12: 13056a 316411i bk13: 13056a 300145i bk14: 13056a 280551i bk15: 13056a 256371i 
dram_util_bins: 0 0 0 0 0 0 0 0 0 0
dram_eff_bins: 0 0 0 0 0 0 0 0 0 0
mrqq: max=16 avg=14.8529
Memory Partition 4: 
Cache L2_bank_008:
MSHR contents

Cache L2_bank_009:
MSHR contents

In Dram Latency Queue (total = 0): 
DRAM[4]: 16 bks, busW=4 BL=4 CL=12, tRRD=2 tCCD=6, tRCD=12 tRAS=28 tRP=12 tRC=40
n_cmd=737729 n_nop=351659 n_act=47207 n_pre=47191 n_req=72918 n_rd=208336 n_write=83336 bw_util=0.3954
n_activity=726035 dram_eff=0.4017
bk0: 12992a 377116i bk1: 12984a 359087i bk2: 12928a 352041i bk3: 12928a 336102i bk4: 12968a 328984i bk5: 12976a 303185i bk6: 13056a 288905i bk7: 13056a 263985i bk8: 13056a 368102i bk9: 13056a 356853i bk10: 13056a 348179i bk11: 13056a 331679i bk12: 13056a 321011i bk13: 13056a 296554i bk14: 13056a 279944i bk15: 13056a 249914i 
dram_util_bins: 0 0 0 0 0 0 0 0 0 0
dram_eff_bins: 0 0 0 0 0 0 0 0 0 0
mrqq: max=16 avg=15.2092
Memory Partition 5: 
Cache L2_bank_010:
MSHR contents

Cache L2_bank_011:
MSHR contents

In Dram Latency Queue (total = 0): 
DRAM[5]: 16 bks, busW=4 BL=4 CL=12, tRRD=2 tCCD=6, tRCD=12 tRAS=28 tRP=12 tRC=40
n_cmd=737729 n_nop=350369 n_act=47852 n_pre=47836 n_req=72918 n_rd=208336 n_write=83336 bw_util=0.3954
n_activity=726507 dram_eff=0.4015
bk0: 12992a 366454i bk1: 12984a 362906i bk2: 12928a 347898i bk3: 12928a 331792i bk4: 12968a 319255i bk5: 12976a 303440i bk6: 13056a 282119i bk7: 13056a 257292i bk8: 13056a 350268i bk9: 13056a 349527i bk10: 13056a 346286i bk11: 13056a 328369i bk12: 13056a 313753i bk13: 13056a 301291i bk14: 13056a 278028i bk15: 13056a 247530i 
dram_util_bins: 0 0 0 0 0 0 0 0 0 0
dram_eff_bins: 0 0 0 0 0 0 0 0 0 0
mrqq: max=16 avg=14.9118

========= L2 cache stats =========
L2_cache_bank[0]: Access = 26087, Miss = 26045, Miss_rate = 0.998, Pending_hits = 9, Reservation_fails = 24483
L2_cache_bank[1]: Access = 26040, Miss = 26040, Miss_rate = 1.000, Pending_hits = 0, Reservation_fails = 20961
L2_cache_bank[2]: Access = 26072, Miss = 26044, Miss_rate = 0.999, Pending_hits = 6, Reservation_fails = 7909
L2_cache_bank[3]: Access = 26040, Miss = 26040, Miss_rate = 1.000, Pending_hits = 0, Reservation_fails = 9218
L2_cache_bank[4]: Access = 26072, Miss = 26044, Miss_rate = 0.999, Pending_hits = 6, Reservation_fails = 17844
L2_cache_bank[5]: Access = 26042, Miss = 26042, Miss_rate = 1.000, Pending_hits = 0, Reservation_fails = 32534
L2_cache_bank[6]: Access = 26072, Miss = 26044, Miss_rate = 0.999, Pending_hits = 6, Reservation_fails = 14639
L2_cache_bank[7]: Access = 26042, Miss = 26042, Miss_rate = 1.000, Pending_hits = 0, Reservation_fails = 13529
L2_cache_bank[8]: Access = 26042, Miss = 26042, Miss_rate = 1.000, Pending_hits = 0, Reservation_fails = 15867
L2_cache_bank[9]: Access = 26042, Miss = 26042, Miss_rate = 1.000, Pending_hits = 0, Reservation_fails = 32756
L2_cache_bank[10]: Access = 26042, Miss = 26042, Miss_rate = 1.000, Pending_hits = 0, Reservation_fails = 13593
L2_cache_bank[11]: Access = 26042, Miss = 26042, Miss_rate = 1.000, Pending_hits = 0, Reservation_fails = 16651
L2_total_cache_accesses = 312635
L2_total_cache_misses = 312509
L2_total_cache_miss_rate = 0.9996
L2_total_cache_pending_hits = 27
L2_total_cache_reservation_fails = 219984
L2_total_cache_breakdown:
	L2_cache_stats_breakdown[GLOBAL_ACC_R][MISS] = 187500
	L2_cache_stats_breakdown[GLOBAL_ACC_R][RESERVATION_FAIL] = 133297
	L2_cache_stats_breakdown[CONST_ACC_R][HIT] = 11
	L2_cache_stats_breakdown[CONST_ACC_R][HIT_RESERVED] = 3
	L2_cache_stats_breakdown[CONST_ACC_R][MISS] = 1
	L2_cache_stats_breakdown[CONST_ACC_R][RESERVATION_FAIL] = 113
	L2_cache_stats_breakdown[GLOBAL_ACC_W][MISS] = 125000
	L2_cache_stats_breakdown[GLOBAL_ACC_W][RESERVATION_FAIL] = 85429
	L2_cache_stats_breakdown[INST_ACC_R][HIT] = 88
	L2_cache_stats_breakdown[INST_ACC_R][HIT_RESERVED] = 24
	L2_cache_stats_breakdown[INST_ACC_R][MISS] = 8
	L2_cache_stats_breakdown[INST_ACC_R][RESERVATION_FAIL] = 1145
L2_cache_data_port_util = 0.000
L2_cache_fill_port_util = 0.186

icnt_total_pkts_mem_to_simt=1063145
icnt_total_pkts_simt_to_mem=812635
LD_mem_lat_dist  0 0 0 0 0 0 0 0 0 0 0 0 0 0 0 0 0 0 0 0 0 0 0 0 0 0 0
ST_mem_lat_dist  0 0 0 0 0 0 0 0 0 0 0 0 0 0 0 0 0 0 0 0 0 0 0 0 0 0 0
----------------------------Interconnect-DETAILS--------------------------------
Class 0:
Packet latency average = 86.6754
	minimum = 6
	maximum = 1422
Network latency average = 56.4043
	minimum = 6
	maximum = 1242
Slowest packet = 4119
Flit latency average = 40.891
	minimum = 6
	maximum = 1238
Slowest flit = 273664
Fragmentation average = 1.24665
	minimum = 0
	maximum = 721
Injected packet rate average = 0.0414363
	minimum = 0.0361236 (at node 7)
	maximum = 0.0466768 (at node 15)
Accepted packet rate average = 0.0414363
	minimum = 0.0361236 (at node 7)
	maximum = 0.0466768 (at node 15)
Injected flit rate average = 0.124307
	minimum = 0.0938957 (at node 7)
	maximum = 0.158782 (at node 15)
Accepted flit rate average= 0.124307
	minimum = 0.121141 (at node 16)
	maximum = 0.130751 (at node 6)
Injected packet length average = 2.99995
Accepted packet length average = 2.99995
Total in-flight flits = 0 (0 measured)
====== Overall Traffic Statistics ======
====== Traffic class 0 ======
Packet latency average = 86.6754 (1 samples)
	minimum = 6 (1 samples)
	maximum = 1422 (1 samples)
Network latency average = 56.4043 (1 samples)
	minimum = 6 (1 samples)
	maximum = 1242 (1 samples)
Flit latency average = 40.891 (1 samples)
	minimum = 6 (1 samples)
	maximum = 1238 (1 samples)
Fragmentation average = 1.24665 (1 samples)
	minimum = 0 (1 samples)
	maximum = 721 (1 samples)
Injected packet rate average = 0.0414363 (1 samples)
	minimum = 0.0361236 (1 samples)
	maximum = 0.0466768 (1 samples)
Accepted packet rate average = 0.0414363 (1 samples)
	minimum = 0.0361236 (1 samples)
	maximum = 0.0466768 (1 samples)
Injected flit rate average = 0.124307 (1 samples)
	minimum = 0.0938957 (1 samples)
	maximum = 0.158782 (1 samples)
Accepted flit rate average = 0.124307 (1 samples)
	minimum = 0.121141 (1 samples)
	maximum = 0.130751 (1 samples)
Injected packet size average = 2.99995 (1 samples)
Accepted packet size average = 2.99995 (1 samples)
Hops average = 1 (1 samples)
----------------------------END-of-Interconnect-DETAILS-------------------------


gpgpu_simulation_time = 0 days, 0 hrs, 7 min, 43 sec (463 sec)
gpgpu_simulation_rate = 422854 (inst/sec)
gpgpu_simulation_rate = 1207 (cycle/sec)
GPGPU-Sim: synchronize waiting for inactive GPU simulation
GPGPU-Sim API: Stream Manager State
GPGPU-Sim: detected inactive GPU simulation thread
Options count             : 4000000     
BlackScholesGPU() time    : 460744.562500 msec
Effective memory bandwidth: 0.000087 GB/s
Gigaoptions per second    : 0.000009     
Reading back GPU results...
Checking the results...
...running CPU calculations.
Comparing the results...
L1 norm: 1.729535E-07
Max absolute error: 1.192093E-05
TEST PASSED
Shutting down...
...releasing GPU memory.
...releasing CPU memory.
Shutdown done.
GPGPU-Sim: exit_simulation called
GPGPU-Sim: simulation thread signaled exit

Press ENTER to exit...
