

        *** GPGPU-Sim Simulator Version 3.2.2  [build 0] ***


GPGPU-Sim PTX: simulation mode 0 (can change with PTX_SIM_MODE_FUNC environment variable:
               1=functional simulation only, 0=detailed performance simulator)
GPGPU-Sim: Configuration options:

-network_mode                           1 # Interconnection network mode
-inter_config_file   config_fermi_islip.icnt # Interconnection network config file
-gpgpu_ptx_use_cuobjdump                    1 # Use cuobjdump to extract ptx and sass from binaries
-gpgpu_experimental_lib_support                    0 # Try to extract code from cuda libraries [Broken because of unknown cudaGetExportTable]
-gpgpu_ptx_convert_to_ptxplus                    0 # Convert SASS (native ISA) to ptxplus and run ptxplus
-gpgpu_ptx_force_max_capability                   20 # Force maximum compute capability
-gpgpu_ptx_inst_debug_to_file                    0 # Dump executed instructions' debug information to file
-gpgpu_ptx_inst_debug_file       inst_debug.txt # Executed instructions' debug output file
-gpgpu_ptx_inst_debug_thread_uid                    1 # Thread UID for executed instructions' debug output
-gpgpu_simd_model                       1 # 1 = post-dominator
-gpgpu_shader_core_pipeline              1536:32 # shader core pipeline config, i.e., {<nthread>:<warpsize>}
-gpgpu_tex_cache:l1  4:128:24,L:R:m:N:L,F:128:4,128:2 # per-shader L1 texture cache  (READ-ONLY) config  {<nsets>:<bsize>:<assoc>,<rep>:<wr>:<alloc>:<wr_alloc>,<mshr>:<N>:<merge>,<mq>:<rf>}
-gpgpu_const_cache:l1 64:64:2,L:R:f:N:L,A:2:32,4 # per-shader L1 constant memory cache  (READ-ONLY) config  {<nsets>:<bsize>:<assoc>,<rep>:<wr>:<alloc>:<wr_alloc>,<mshr>:<N>:<merge>,<mq>} 
-gpgpu_cache:il1     4:128:4,L:R:f:N:L,A:2:32,4 # shader L1 instruction cache config  {<nsets>:<bsize>:<assoc>,<rep>:<wr>:<alloc>:<wr_alloc>,<mshr>:<N>:<merge>,<mq>} 
-gpgpu_cache:dl1     32:128:4,L:L:m:N:H,A:32:8,8 # per-shader L1 data cache config  {<nsets>:<bsize>:<assoc>,<rep>:<wr>:<alloc>:<wr_alloc>,<mshr>:<N>:<merge>,<mq> | none}
-gpgpu_cache:dl1PrefL1                 none # per-shader L1 data cache config  {<nsets>:<bsize>:<assoc>,<rep>:<wr>:<alloc>:<wr_alloc>,<mshr>:<N>:<merge>,<mq> | none}
-gpgpu_cache:dl1PreShared                 none # per-shader L1 data cache config  {<nsets>:<bsize>:<assoc>,<rep>:<wr>:<alloc>:<wr_alloc>,<mshr>:<N>:<merge>,<mq> | none}
-gmem_skip_L1D                          0 # global memory access skip L1D cache (implements -Xptxas -dlcm=cg, default=no skip)
-gpgpu_perfect_mem                      0 # enable perfect memory mode (no cache miss)
-n_regfile_gating_group                    4 # group of lanes that should be read/written together)
-gpgpu_clock_gated_reg_file                    0 # enable clock gated reg file for power calculations
-gpgpu_clock_gated_lanes                    0 # enable clock gated lanes for power calculations
-gpgpu_shader_registers                32768 # Number of registers per shader core. Limits number of concurrent CTAs. (default 8192)
-gpgpu_shader_cta                       8 # Maximum number of concurrent CTAs in shader (default 8)
-gpgpu_num_cta_barriers                   16 # Maximum number of named barriers per CTA (default 16)
-gpgpu_n_clusters                      15 # number of processing clusters
-gpgpu_n_cores_per_cluster                    1 # number of simd cores per cluster
-gpgpu_n_cluster_ejection_buffer_size                    8 # number of packets in ejection buffer
-gpgpu_n_ldst_response_buffer_size                    2 # number of response packets in ld/st unit ejection buffer
-gpgpu_shmem_size                   16384 # Size of shared memory per shader core (default 16kB)
-gpgpu_shmem_size                   49152 # Size of shared memory per shader core (default 16kB)
-gpgpu_shmem_size_PrefL1                16384 # Size of shared memory per shader core (default 16kB)
-gpgpu_shmem_size_PrefShared                16384 # Size of shared memory per shader core (default 16kB)
-gpgpu_shmem_num_banks                   32 # Number of banks in the shared memory in each shader core (default 16)
-gpgpu_shmem_limited_broadcast                    0 # Limit shared memory to do one broadcast per cycle (default on)
-gpgpu_shmem_warp_parts                    1 # Number of portions a warp is divided into for shared memory bank conflict check 
-gpgpu_warpdistro_shader                   -1 # Specify which shader core to collect the warp size distribution from
-gpgpu_warp_issue_shader                    0 # Specify which shader core to collect the warp issue distribution from
-gpgpu_local_mem_map                    1 # Mapping from local memory space address to simulated GPU physical address space (default = enabled)
-gpgpu_num_reg_banks                   16 # Number of register banks (default = 8)
-gpgpu_reg_bank_use_warp_id                    0 # Use warp ID in mapping registers to banks (default = off)
-gpgpu_operand_collector_num_units_sp                    6 # number of collector units (default = 4)
-gpgpu_operand_collector_num_units_sfu                    8 # number of collector units (default = 4)
-gpgpu_operand_collector_num_units_mem                    2 # number of collector units (default = 2)
-gpgpu_operand_collector_num_units_gen                    0 # number of collector units (default = 0)
-gpgpu_operand_collector_num_in_ports_sp                    2 # number of collector unit in ports (default = 1)
-gpgpu_operand_collector_num_in_ports_sfu                    1 # number of collector unit in ports (default = 1)
-gpgpu_operand_collector_num_in_ports_mem                    1 # number of collector unit in ports (default = 1)
-gpgpu_operand_collector_num_in_ports_gen                    0 # number of collector unit in ports (default = 0)
-gpgpu_operand_collector_num_out_ports_sp                    2 # number of collector unit in ports (default = 1)
-gpgpu_operand_collector_num_out_ports_sfu                    1 # number of collector unit in ports (default = 1)
-gpgpu_operand_collector_num_out_ports_mem                    1 # number of collector unit in ports (default = 1)
-gpgpu_operand_collector_num_out_ports_gen                    0 # number of collector unit in ports (default = 0)
-gpgpu_coalesce_arch                   13 # Coalescing arch (default = 13, anything else is off for now)
-gpgpu_num_sched_per_core                    2 # Number of warp schedulers per core
-gpgpu_max_insn_issue_per_warp                    1 # Max number of instructions that can be issued per warp in one cycle by scheduler
-gpgpu_simt_core_sim_order                    1 # Select the simulation order of cores in a cluster (0=Fix, 1=Round-Robin)
-gpgpu_pipeline_widths        2,1,1,2,1,1,2 # Pipeline widths ID_OC_SP,ID_OC_SFU,ID_OC_MEM,OC_EX_SP,OC_EX_SFU,OC_EX_MEM,EX_WB
-gpgpu_num_sp_units                     2 # Number of SP units (default=1)
-gpgpu_num_sfu_units                    1 # Number of SF units (default=1)
-gpgpu_num_mem_units                    1 # Number if ldst units (default=1) WARNING: not hooked up to anything
-gpgpu_scheduler                      gto # Scheduler configuration: < lrr | gto | two_level_active > If two_level_active:<num_active_warps>:<inner_prioritization>:<outer_prioritization>For complete list of prioritization values see shader.h enum scheduler_prioritization_typeDefault: gto
-gpgpu_dram_scheduler                    1 # 0 = fifo, 1 = FR-FCFS (defaul)
-gpgpu_dram_partition_queues              8:8:8:8 # i2$:$2d:d2$:$2i
-l2_ideal                               0 # Use a ideal L2 cache that always hit
-gpgpu_cache:dl2     64:128:8,L:B:m:W:L,A:32:4,4:0,32 # unified banked L2 data cache config  {<nsets>:<bsize>:<assoc>,<rep>:<wr>:<alloc>:<wr_alloc>,<mshr>:<N>:<merge>,<mq>}
-gpgpu_cache:dl2_texture_only                    0 # L2 cache used for texture only
-gpgpu_n_mem                            6 # number of memory modules (e.g. memory controllers) in gpu
-gpgpu_n_sub_partition_per_mchannel                    2 # number of memory subpartition in each memory module
-gpgpu_n_mem_per_ctrlr                    2 # number of memory chips per memory controller
-gpgpu_memlatency_stat                   14 # track and display latency statistics 0x2 enables MC, 0x4 enables queue logs
-gpgpu_frfcfs_dram_sched_queue_size                   16 # 0 = unlimited (default); # entries per chip
-gpgpu_dram_return_queue_size                  116 # 0 = unlimited (default); # entries per chip
-gpgpu_dram_buswidth                    4 # default = 4 bytes (8 bytes per cycle at DDR)
-gpgpu_dram_burst_length                    8 # Burst length of each DRAM request (default = 4 data bus cycle)
-dram_data_command_freq_ratio                    4 # Frequency ratio between DRAM data bus and command bus (default = 2 times, i.e. DDR)
-gpgpu_dram_timing_opt nbk=16:CCD=2:RRD=6:RCD=12:RAS=28:RP=12:RC=40: CL=12:WL=4:CDLR=5:WR=12:nbkgrp=4:CCDL=3:RTPL=2 # DRAM timing parameters = {nbk:tCCD:tRRD:tRCD:tRAS:tRP:tRC:CL:WL:tCDLR:tWR:nbkgrp:tCCDL:tRTPL}
-rop_latency                          120 # ROP queue latency (default 85)
-dram_latency                         100 # DRAM latency (default 30)
-gpgpu_mem_addr_mapping dramid@8;00000000.00000000.00000000.00000000.0000RRRR.RRRRRRRR.BBBCCCCB.CCSSSSSS # mapping memory address to dram model {dramid@<start bit>;<memory address map>}
-gpgpu_mem_addr_test                    0 # run sweep test to check address mapping for aliased address
-gpgpu_mem_address_mask                    1 # 0 = old addressing mask, 1 = new addressing mask, 2 = new add. mask + flipped bank sel and chip sel bits
-gpuwattch_xml_file  gpuwattch_gtx480.xml # GPUWattch XML file
-power_simulation_enabled                    0 # Turn on power simulator (1=On, 0=Off)
-power_per_cycle_dump                    0 # Dump detailed power output each cycle
-power_trace_enabled                    0 # produce a file for the power trace (1=On, 0=Off)
-power_trace_zlevel                     6 # Compression level of the power trace output log (0=no comp, 9=highest)
-steady_power_levels_enabled                    0 # produce a file for the steady power levels (1=On, 0=Off)
-steady_state_definition                  8:4 # allowed deviation:number of samples
-gpgpu_max_cycle                        0 # terminates gpu simulation early (0 = no limit)
-gpgpu_max_insn                         0 # terminates gpu simulation early (0 = no limit)
-gpgpu_max_cta                          0 # terminates gpu simulation early (0 = no limit)
-gpgpu_runtime_stat                   500 # display runtime statistics such as dram utilization {<freq>:<flag>}
-liveness_message_freq                    1 # Minimum number of seconds between simulation liveness messages (0 = always print)
-gpgpu_flush_l1_cache                    0 # Flush L1 cache at the end of each kernel call
-gpgpu_flush_l2_cache                    0 # Flush L2 cache at the end of each kernel call
-gpgpu_deadlock_detect                    1 # Stop the simulation at deadlock (1=on (default), 0=off)
-gpgpu_ptx_instruction_classification                    0 # if enabled will classify ptx instruction types per kernel (Max 255 kernels now)
-gpgpu_ptx_sim_mode                     0 # Select between Performance (default) or Functional simulation (1)
-gpgpu_clock_domains 700.0:700.0:700.0:924.0 # Clock Domain Frequencies in MhZ {<Core Clock>:<ICNT Clock>:<L2 Clock>:<DRAM Clock>}
-gpgpu_max_concurrent_kernel                    8 # maximum kernels that can run concurrently on GPU
-gpgpu_cflog_interval                    0 # Interval between each snapshot in control flow logger
-visualizer_enabled                     0 # Turn on visualizer output (1=On, 0=Off)
-visualizer_outputfile                 NULL # Specifies the output log file for visualizer
-visualizer_zlevel                      6 # Compression level of the visualizer output log (0=no comp, 9=highest)
-trace_enabled                          0 # Turn on traces
-trace_components                    none # comma seperated list of traces to enable. Complete list found in trace_streams.tup. Default none
-trace_sampling_core                    0 # The core which is printed using CORE_DPRINTF. Default 0
-trace_sampling_memory_partition                   -1 # The memory partition which is printed using MEMPART_DPRINTF. Default -1 (i.e. all)
-enable_ptx_file_line_stats                    1 # Turn on PTX source line statistic profiling. (1 = On)
-ptx_line_stats_filename gpgpu_inst_stats.txt # Output file for PTX source line statistics.
-save_embedded_ptx                      0 # saves ptx files embedded in binary as <n>.ptx
-keep                                   0 # keep intermediate files created by GPGPU-Sim when interfacing with external programs
-gpgpu_ptx_save_converted_ptxplus                    0 # Saved converted ptxplus to a file
-ptx_opcode_latency_int         4,13,4,5,145 # Opcode latencies for integers <ADD,MAX,MUL,MAD,DIV>Default 1,1,19,25,145
-ptx_opcode_latency_fp          4,13,4,5,39 # Opcode latencies for single precision floating points <ADD,MAX,MUL,MAD,DIV>Default 1,1,1,1,30
-ptx_opcode_latency_dp         8,19,8,8,330 # Opcode latencies for double precision floating points <ADD,MAX,MUL,MAD,DIV>Default 8,8,8,8,335
-ptx_opcode_initiation_int            1,2,2,1,8 # Opcode initiation intervals for integers <ADD,MAX,MUL,MAD,DIV>Default 1,1,4,4,32
-ptx_opcode_initiation_fp            1,2,1,1,4 # Opcode initiation intervals for single precision floating points <ADD,MAX,MUL,MAD,DIV>Default 1,1,1,1,5
-ptx_opcode_initiation_dp         8,16,8,8,130 # Opcode initiation intervals for double precision floating points <ADD,MAX,MUL,MAD,DIV>Default 8,8,8,8,130
DRAM Timing Options:
nbk                                    16 # number of banks
CCD                                     2 # column to column delay
RRD                                     6 # minimal delay between activation of rows in different banks
RCD                                    12 # row to column delay
RAS                                    28 # time needed to activate row
RP                                     12 # time needed to precharge (deactivate) row
RC                                     40 # row cycle time
CDLR                                    5 # switching from write to read (changes tWTR)
WR                                     12 # last data-in to row precharge
CL                                     12 # CAS latency
WL                                      4 # Write latency
nbkgrp                                  4 # number of bank groups
CCDL                                    3 # column to column delay between accesses to different bank groups
RTPL                                    2 # read to precharge delay between accesses to different bank groups
Total number of memory sub partition = 12
addr_dec_mask[CHIP]  = 0000000000000000 	high:64 low:0
addr_dec_mask[BK]    = 000000000000e100 	high:16 low:8
addr_dec_mask[ROW]   = 000000000fff0000 	high:28 low:16
addr_dec_mask[COL]   = 0000000000001eff 	high:13 low:0
addr_dec_mask[BURST] = 000000000000003f 	high:6 low:0
sub_partition_id_mask = 0000000000000100
GPGPU-Sim uArch: clock freqs: 700000000.000000:700000000.000000:700000000.000000:924000000.000000
GPGPU-Sim uArch: clock periods: 0.00000000142857142857:0.00000000142857142857:0.00000000142857142857:0.00000000108225108225
*** Initializing Memory Statistics ***
GPGPU-Sim uArch: interconnect node map (shaderID+MemID to icntID)
GPGPU-Sim uArch: Memory nodes ID start from index: 15
GPGPU-Sim uArch:    0   1   2   3   4
GPGPU-Sim uArch:    5   6   7   8   9
GPGPU-Sim uArch:   10  11  12  13  14
GPGPU-Sim uArch:   15  16  17  18  19
GPGPU-Sim uArch:   20  21  22  23  24
GPGPU-Sim uArch:   25  26
GPGPU-Sim uArch: interconnect node reverse map (icntID to shaderID+MemID)
GPGPU-Sim uArch: Memory nodes start from ID: 15
GPGPU-Sim uArch:    0   1   2   3   4
GPGPU-Sim uArch:    5   6   7   8   9
GPGPU-Sim uArch:   10  11  12  13  14
GPGPU-Sim uArch:   15  16  17  18  19
GPGPU-Sim uArch:   20  21  22  23  24
GPGPU-Sim uArch:   25  26
316bcbff5f8f022bb22b20bb4721e93e  /sciclone/data20/adwait/applications/benchmarks/CUDA/RAY/gpgpu_ptx_sim__RAY
GPGPU-Sim uArch: performance model initialization complete.
GPGPU-Sim PTX: __cudaRegisterFatBinary, fat_cubin_handle = 1, filename=rayTracing.cu
self exe links to: /sciclone/data20/adwait/applications/benchmarks/CUDA/RAY/gpgpu_ptx_sim__RAY
Running md5sum using "md5sum /sciclone/data20/adwait/applications/benchmarks/CUDA/RAY/gpgpu_ptx_sim__RAY "
Parsing file _cuobjdump_complete_output_lbJqqz
######### cuobjdump parser ########
## Adding new section ELF
Adding arch: sm_20
Adding identifier: rayTracing.cu
## Adding new section PTX
Adding ptx filename: _cuobjdump_1.ptx
Adding arch: sm_20
Adding identifier: rayTracing.cu
Done parsing!!!
GPGPU-Sim PTX: __cudaRegisterFunction _Z6renderPjP4Nodejjff : hostFun 0x0x40ce13, fat_cubin_handle = 1
GPGPU-Sim PTX: allocating stack frame region for .param "__cudaretf__Zmi6float3S_" from 0x0 to 0xc
GPGPU-Sim PTX: allocating stack frame region for .param "__cudaparmf1__Zmi6float3S_" from 0xc to 0x18
GPGPU-Sim PTX: allocating stack frame region for .param "__cudaparmf2__Zmi6float3S_" from 0x18 to 0x24
GPGPU-Sim PTX: allocating stack frame region for .param "__cudaretf__Z9normalize6float3" from 0x0 to 0xc
GPGPU-Sim PTX: allocating stack frame region for .param "__cudaparmf1__Z9normalize6float3" from 0xc to 0x18
GPGPU-Sim PTX: allocating stack frame region for .param "__cudaretf__Z18intersectionSphere5Rayon6float3f" from 0x0 to 0x4
GPGPU-Sim PTX: allocating stack frame region for .param "__cudaparmf1__Z18intersectionSphere5Rayon6float3f" from 0x4 to 0x1c
GPGPU-Sim PTX: allocating stack frame region for .param "__cudaparmf2__Z18intersectionSphere5Rayon6float3f" from 0x1c to 0x28
GPGPU-Sim PTX: allocating stack frame region for .param "__cudaparmf3__Z18intersectionSphere5Rayon6float3f" from 0x28 to 0x2c
GPGPU-Sim PTX: allocating stack frame region for .param "__cudaretf__Z16intersectionPlan5Rayon6float3S0_" from 0x0 to 0x4
GPGPU-Sim PTX: allocating stack frame region for .param "__cudaparmf1__Z16intersectionPlan5Rayon6float3S0_" from 0x4 to 0x1c
GPGPU-Sim PTX: allocating stack frame region for .param "__cudaparmf2__Z16intersectionPlan5Rayon6float3S0_" from 0x1c to 0x28
GPGPU-Sim PTX: allocating stack frame region for .param "__cudaparmf3__Z16intersectionPlan5Rayon6float3S0_" from 0x28 to 0x34
GPGPU-Sim PTX: allocating stack frame region for .param "__cudaretf__Z10getNormale6float3S_" from 0x0 to 0xc
GPGPU-Sim PTX: allocating stack frame region for .param "__cudaparmf1__Z10getNormale6float3S_" from 0xc to 0x18
GPGPU-Sim PTX: allocating stack frame region for .param "__cudaparmf2__Z10getNormale6float3S_" from 0x18 to 0x24
GPGPU-Sim PTX: allocating stack frame region for .param "__cudaretf__Z11getNormaleP6float3" from 0x0 to 0xc
GPGPU-Sim PTX: allocating stack frame region for .param "__cudaparmf1__Z11getNormaleP6float3" from 0xc to 0x18
GPGPU-Sim PTX: allocating stack frame region for .param "__cudaretf__Z14rgbaFloatToInt6float4" from 0x0 to 0x4
GPGPU-Sim PTX: allocating stack frame region for .param "__cudaparmf1__Z14rgbaFloatToInt6float4" from 0x4 to 0x14
GPGPU-Sim PTX: allocating stack frame region for .param "__cudaretf__Z12notShadowRayP4Node6float3S1_f" from 0x0 to 0x4
GPGPU-Sim PTX: allocating stack frame region for .param "__cudaparmf1__Z12notShadowRayP4Node6float3S1_f" from 0x4 to 0xc
GPGPU-Sim PTX: allocating stack frame region for .param "__cudaparmf2__Z12notShadowRayP4Node6float3S1_f" from 0xc to 0x18
GPGPU-Sim PTX: allocating stack frame region for .param "__cudaparmf3__Z12notShadowRayP4Node6float3S1_f" from 0x18 to 0x24
GPGPU-Sim PTX: allocating stack frame region for .param "__cudaparmf4__Z12notShadowRayP4Node6float3S1_f" from 0x24 to 0x28
GPGPU-Sim PTX: allocating stack frame region for .param "__cudaretf__Z15float2int_pow20f" from 0x0 to 0x4
GPGPU-Sim PTX: allocating stack frame region for .param "__cudaparmf1__Z15float2int_pow20f" from 0x4 to 0x8
GPGPU-Sim PTX: allocating stack frame region for .param "__cudaretf__Z15float2int_pow50f" from 0x0 to 0x4
GPGPU-Sim PTX: allocating stack frame region for .param "__cudaparmf1__Z15float2int_pow50f" from 0x4 to 0x8
GPGPU-Sim PTX: allocating stack frame region for .param "__cudaparmf1__ZN4dim3C1Ejjj" from 0x0 to 0x8
GPGPU-Sim PTX: allocating stack frame region for .param "__cudaparmf2__ZN4dim3C1Ejjj" from 0x8 to 0xc
GPGPU-Sim PTX: allocating stack frame region for .param "__cudaparmf3__ZN4dim3C1Ejjj" from 0xc to 0x10
GPGPU-Sim PTX: allocating stack frame region for .param "__cudaparmf4__ZN4dim3C1Ejjj" from 0x10 to 0x14
GPGPU-Sim PTX: instruction assembly for function '_Zmi6float3S_'...   done.
GPGPU-Sim PTX: finding reconvergence points for '_Zmi6float3S_'...
GPGPU-Sim PTX: Finding dominators for '_Zmi6float3S_'...
GPGPU-Sim PTX: Finding immediate dominators for '_Zmi6float3S_'...
GPGPU-Sim PTX: Finding postdominators for '_Zmi6float3S_'...
GPGPU-Sim PTX: Finding immediate postdominators for '_Zmi6float3S_'...
GPGPU-Sim PTX: pre-decoding instructions for '_Zmi6float3S_'...
GPGPU-Sim PTX: reconvergence points for _Zmi6float3S_...
GPGPU-Sim PTX: ... end of reconvergence points for _Zmi6float3S_
GPGPU-Sim PTX: ... done pre-decoding instructions for '_Zmi6float3S_'.
GPGPU-Sim PTX: instruction assembly for function '_Z9normalize6float3'...   done.
GPGPU-Sim PTX: finding reconvergence points for '_Z9normalize6float3'...
GPGPU-Sim PTX: Finding dominators for '_Z9normalize6float3'...
GPGPU-Sim PTX: Finding immediate dominators for '_Z9normalize6float3'...
GPGPU-Sim PTX: Finding postdominators for '_Z9normalize6float3'...
GPGPU-Sim PTX: Finding immediate postdominators for '_Z9normalize6float3'...
GPGPU-Sim PTX: pre-decoding instructions for '_Z9normalize6float3'...
GPGPU-Sim PTX: reconvergence points for _Z9normalize6float3...
GPGPU-Sim PTX: ... end of reconvergence points for _Z9normalize6float3
GPGPU-Sim PTX: ... done pre-decoding instructions for '_Z9normalize6float3'.
GPGPU-Sim PTX: instruction assembly for function '_Z18intersectionSphere5Rayon6float3f'...   done.
GPGPU-Sim PTX: finding reconvergence points for '_Z18intersectionSphere5Rayon6float3f'...
GPGPU-Sim PTX: Finding dominators for '_Z18intersectionSphere5Rayon6float3f'...
GPGPU-Sim PTX: Finding immediate dominators for '_Z18intersectionSphere5Rayon6float3f'...
GPGPU-Sim PTX: Finding postdominators for '_Z18intersectionSphere5Rayon6float3f'...
GPGPU-Sim PTX: Finding immediate postdominators for '_Z18intersectionSphere5Rayon6float3f'...
GPGPU-Sim PTX: pre-decoding instructions for '_Z18intersectionSphere5Rayon6float3f'...
GPGPU-Sim PTX: reconvergence points for _Z18intersectionSphere5Rayon6float3f...
GPGPU-Sim PTX:  1 (potential) branch divergence @  PC=0x250 (_1.ptx:173) @%p2 bra $Lt_2_3074;
GPGPU-Sim PTX:    immediate post dominator      @  PC=0x2c0 (_1.ptx:193) mov.f32 %f39, %f32;
GPGPU-Sim PTX:  2 (potential) branch divergence @  PC=0x260 (_1.ptx:175) bra.uni $Lt_2_2818;
GPGPU-Sim PTX:    immediate post dominator      @  PC=0x2c0 (_1.ptx:193) mov.f32 %f39, %f32;
GPGPU-Sim PTX:  3 (potential) branch divergence @  PC=0x280 (_1.ptx:180) @!%p3 bra $Lt_2_3586;
GPGPU-Sim PTX:    immediate post dominator      @  PC=0x2c0 (_1.ptx:193) mov.f32 %f39, %f32;
GPGPU-Sim PTX:  4 (potential) branch divergence @  PC=0x290 (_1.ptx:182) bra.uni $Lt_2_3330;
GPGPU-Sim PTX:    immediate post dominator      @  PC=0x2c0 (_1.ptx:193) mov.f32 %f39, %f32;
GPGPU-Sim PTX: ... end of reconvergence points for _Z18intersectionSphere5Rayon6float3f
GPGPU-Sim PTX: ... done pre-decoding instructions for '_Z18intersectionSphere5Rayon6float3f'.
GPGPU-Sim PTX: instruction assembly for function '_Z16intersectionPlan5Rayon6float3S0_'...   done.
GPGPU-Sim PTX: finding reconvergence points for '_Z16intersectionPlan5Rayon6float3S0_'...
GPGPU-Sim PTX: Finding dominators for '_Z16intersectionPlan5Rayon6float3S0_'...
GPGPU-Sim PTX: Finding immediate dominators for '_Z16intersectionPlan5Rayon6float3S0_'...
GPGPU-Sim PTX: Finding postdominators for '_Z16intersectionPlan5Rayon6float3S0_'...
GPGPU-Sim PTX: Finding immediate postdominators for '_Z16intersectionPlan5Rayon6float3S0_'...
GPGPU-Sim PTX: pre-decoding instructions for '_Z16intersectionPlan5Rayon6float3S0_'...
GPGPU-Sim PTX: reconvergence points for _Z16intersectionPlan5Rayon6float3S0_...
GPGPU-Sim PTX:  1 (potential) branch divergence @  PC=0x320 (_1.ptx:214) @!%p1 bra $Lt_3_2050;
GPGPU-Sim PTX:    immediate post dominator      @  PC=0x368 (_1.ptx:227) mov.f32 %f14, %f9;
GPGPU-Sim PTX:  2 (potential) branch divergence @  PC=0x330 (_1.ptx:216) bra.uni $Lt_3_1794;
GPGPU-Sim PTX:    immediate post dominator      @  PC=0x368 (_1.ptx:227) mov.f32 %f14, %f9;
GPGPU-Sim PTX: ... end of reconvergence points for _Z16intersectionPlan5Rayon6float3S0_
GPGPU-Sim PTX: ... done pre-decoding instructions for '_Z16intersectionPlan5Rayon6float3S0_'.
GPGPU-Sim PTX: instruction assembly for function '_Z10getNormale6float3S_'...   done.
GPGPU-Sim PTX: finding reconvergence points for '_Z10getNormale6float3S_'...
GPGPU-Sim PTX: Finding dominators for '_Z10getNormale6float3S_'...
GPGPU-Sim PTX: Finding immediate dominators for '_Z10getNormale6float3S_'...
GPGPU-Sim PTX: Finding postdominators for '_Z10getNormale6float3S_'...
GPGPU-Sim PTX: Finding immediate postdominators for '_Z10getNormale6float3S_'...
GPGPU-Sim PTX: pre-decoding instructions for '_Z10getNormale6float3S_'...
GPGPU-Sim PTX: reconvergence points for _Z10getNormale6float3S_...
GPGPU-Sim PTX: ... end of reconvergence points for _Z10getNormale6float3S_
GPGPU-Sim PTX: ... done pre-decoding instructions for '_Z10getNormale6float3S_'.
GPGPU-Sim PTX: instruction assembly for function '_Z11getNormaleP6float3'...   done.
GPGPU-Sim PTX: finding reconvergence points for '_Z11getNormaleP6float3'...
GPGPU-Sim PTX: Finding dominators for '_Z11getNormaleP6float3'...
GPGPU-Sim PTX: Finding immediate dominators for '_Z11getNormaleP6float3'...
GPGPU-Sim PTX: Finding postdominators for '_Z11getNormaleP6float3'...
GPGPU-Sim PTX: Finding immediate postdominators for '_Z11getNormaleP6float3'...
GPGPU-Sim PTX: pre-decoding instructions for '_Z11getNormaleP6float3'...
GPGPU-Sim PTX: reconvergence points for _Z11getNormaleP6float3...
GPGPU-Sim PTX: ... end of reconvergence points for _Z11getNormaleP6float3
GPGPU-Sim PTX: ... done pre-decoding instructions for '_Z11getNormaleP6float3'.
GPGPU-Sim PTX: instruction assembly for function '_Z14rgbaFloatToInt6float4'...   done.
GPGPU-Sim PTX: finding reconvergence points for '_Z14rgbaFloatToInt6float4'...
GPGPU-Sim PTX: Finding dominators for '_Z14rgbaFloatToInt6float4'...
GPGPU-Sim PTX: Finding immediate dominators for '_Z14rgbaFloatToInt6float4'...
GPGPU-Sim PTX: Finding postdominators for '_Z14rgbaFloatToInt6float4'...
GPGPU-Sim PTX: Finding immediate postdominators for '_Z14rgbaFloatToInt6float4'...
GPGPU-Sim PTX: pre-decoding instructions for '_Z14rgbaFloatToInt6float4'...
GPGPU-Sim PTX: reconvergence points for _Z14rgbaFloatToInt6float4...
GPGPU-Sim PTX: ... end of reconvergence points for _Z14rgbaFloatToInt6float4
GPGPU-Sim PTX: ... done pre-decoding instructions for '_Z14rgbaFloatToInt6float4'.
GPGPU-Sim PTX: allocating global region for "cnode" from 0x100 to 0x1a0 (global memory space)
GPGPU-Sim PTX: instruction assembly for function '_Z12notShadowRayP4Node6float3S1_f'...   done.
GPGPU-Sim PTX: finding reconvergence points for '_Z12notShadowRayP4Node6float3S1_f'...
GPGPU-Sim PTX: Finding dominators for '_Z12notShadowRayP4Node6float3S1_f'...
GPGPU-Sim PTX: Finding immediate dominators for '_Z12notShadowRayP4Node6float3S1_f'...
GPGPU-Sim PTX: Finding postdominators for '_Z12notShadowRayP4Node6float3S1_f'...
GPGPU-Sim PTX: Finding immediate postdominators for '_Z12notShadowRayP4Node6float3S1_f'...
GPGPU-Sim PTX: pre-decoding instructions for '_Z12notShadowRayP4Node6float3S1_f'...
GPGPU-Sim PTX: reconvergence points for _Z12notShadowRayP4Node6float3S1_f...
GPGPU-Sim PTX:  1 (potential) branch divergence @  PC=0x638 (_1.ptx:364) @%p1 bra $Lt_7_8450;
GPGPU-Sim PTX:    immediate post dominator      @  PC=0x828 (_1.ptx:441) mov.f32 %f58, 0f00000000;    // 0
GPGPU-Sim PTX:  2 (potential) branch divergence @  PC=0x658 (_1.ptx:369) @!%p2 bra $Lt_7_8962;
GPGPU-Sim PTX:    immediate post dominator      @  PC=0x6b8 (_1.ptx:385) mov.f32 %f28, %f20;
GPGPU-Sim PTX:  3 (potential) branch divergence @  PC=0x668 (_1.ptx:371) bra.uni $Lt_7_8706;
GPGPU-Sim PTX:    immediate post dominator      @  PC=0x6b8 (_1.ptx:385) mov.f32 %f28, %f20;
GPGPU-Sim PTX:  4 (potential) branch divergence @  PC=0x6c0 (_1.ptx:386) bra.uni $Lt_7_8194;
GPGPU-Sim PTX:    immediate post dominator      @  PC=0x828 (_1.ptx:441) mov.f32 %f58, 0f00000000;    // 0
GPGPU-Sim PTX:  5 (potential) branch divergence @  PC=0x7b0 (_1.ptx:418) @%p5 bra $Lt_7_9474;
GPGPU-Sim PTX:    immediate post dominator      @  PC=0x820 (_1.ptx:438) mov.f32 %f28, %f51;
GPGPU-Sim PTX:  6 (potential) branch divergence @  PC=0x7c0 (_1.ptx:420) bra.uni $Lt_7_9730;
GPGPU-Sim PTX:    immediate post dominator      @  PC=0x820 (_1.ptx:438) mov.f32 %f28, %f51;
GPGPU-Sim PTX:  7 (potential) branch divergence @  PC=0x7e0 (_1.ptx:425) @!%p6 bra $Lt_7_9986;
GPGPU-Sim PTX:    immediate post dominator      @  PC=0x820 (_1.ptx:438) mov.f32 %f28, %f51;
GPGPU-Sim PTX:  8 (potential) branch divergence @  PC=0x7f0 (_1.ptx:427) bra.uni $Lt_7_9730;
GPGPU-Sim PTX:    immediate post dominator      @  PC=0x820 (_1.ptx:438) mov.f32 %f28, %f51;
GPGPU-Sim PTX:  9 (potential) branch divergence @  PC=0x838 (_1.ptx:443) @!%p7 bra $Lt_7_10242;
GPGPU-Sim PTX:    immediate post dominator      @  PC=0x8e8 (_1.ptx:468) add.s32 %r1, %r1, 1;
GPGPU-Sim PTX: 10 (potential) branch divergence @  PC=0x8d8 (_1.ptx:463) @!%p8 bra $Lt_7_10242;
GPGPU-Sim PTX:    immediate post dominator      @  PC=0x8e8 (_1.ptx:468) add.s32 %r1, %r1, 1;
GPGPU-Sim PTX: 11 (potential) branch divergence @  PC=0x908 (_1.ptx:472) @%p9 bra $Lt_7_10754;
GPGPU-Sim PTX:    immediate post dominator      @  PC=0x960 (_1.ptx:486) selp.s32 %r10, 1, 0, %p11;
GPGPU-Sim PTX: 12 (potential) branch divergence @  PC=0x930 (_1.ptx:477) @%p10 bra $L_7_7170;
GPGPU-Sim PTX:    immediate post dominator      @  PC=0x960 (_1.ptx:486) selp.s32 %r10, 1, 0, %p11;
GPGPU-Sim PTX: 13 (potential) branch divergence @  PC=0x938 (_1.ptx:478) bra.uni $L_7_7938;
GPGPU-Sim PTX:    immediate post dominator      @  PC=0x960 (_1.ptx:486) selp.s32 %r10, 1, 0, %p11;
GPGPU-Sim PTX: ... end of reconvergence points for _Z12notShadowRayP4Node6float3S1_f
GPGPU-Sim PTX: ... done pre-decoding instructions for '_Z12notShadowRayP4Node6float3S1_f'.
GPGPU-Sim PTX: instruction assembly for function '_Z15float2int_pow20f'...   done.
GPGPU-Sim PTX: finding reconvergence points for '_Z15float2int_pow20f'...
GPGPU-Sim PTX: Finding dominators for '_Z15float2int_pow20f'...
GPGPU-Sim PTX: Finding immediate dominators for '_Z15float2int_pow20f'...
GPGPU-Sim PTX: Finding postdominators for '_Z15float2int_pow20f'...
GPGPU-Sim PTX: Finding immediate postdominators for '_Z15float2int_pow20f'...
GPGPU-Sim PTX: pre-decoding instructions for '_Z15float2int_pow20f'...
GPGPU-Sim PTX: reconvergence points for _Z15float2int_pow20f...
GPGPU-Sim PTX: ... end of reconvergence points for _Z15float2int_pow20f
GPGPU-Sim PTX: ... done pre-decoding instructions for '_Z15float2int_pow20f'.
GPGPU-Sim PTX: instruction assembly for function '_Z15float2int_pow50f'...   done.
GPGPU-Sim PTX: finding reconvergence points for '_Z15float2int_pow50f'...
GPGPU-Sim PTX: Finding dominators for '_Z15float2int_pow50f'...
GPGPU-Sim PTX: Finding immediate dominators for '_Z15float2int_pow50f'...
GPGPU-Sim PTX: Finding postdominators for '_Z15float2int_pow50f'...
GPGPU-Sim PTX: Finding immediate postdominators for '_Z15float2int_pow50f'...
GPGPU-Sim PTX: pre-decoding instructions for '_Z15float2int_pow50f'...
GPGPU-Sim PTX: reconvergence points for _Z15float2int_pow50f...
GPGPU-Sim PTX: ... end of reconvergence points for _Z15float2int_pow50f
GPGPU-Sim PTX: ... done pre-decoding instructions for '_Z15float2int_pow50f'.
GPGPU-Sim PTX: allocating constant region for "MView" from 0x200 to 0x230 (global memory space) 1
GPGPU-Sim PTX: allocating stack frame region for .local "__cuda___cuda_local_var_35463_9_non_const_pile_32240" from 0x0 to 0x50
GPGPU-Sim PTX: instruction assembly for function '_Z6renderPjP4Nodejjff'...   done.
GPGPU-Sim PTX: finding reconvergence points for '_Z6renderPjP4Nodejjff'...
GPGPU-Sim PTX: Finding dominators for '_Z6renderPjP4Nodejjff'...
GPGPU-Sim PTX: Finding immediate dominators for '_Z6renderPjP4Nodejjff'...
GPGPU-Sim PTX: Finding postdominators for '_Z6renderPjP4Nodejjff'...
GPGPU-Sim PTX: Finding immediate postdominators for '_Z6renderPjP4Nodejjff'...
GPGPU-Sim PTX: pre-decoding instructions for '_Z6renderPjP4Nodejjff'...
GPGPU-Sim PTX: reconvergence points for _Z6renderPjP4Nodejjff...
GPGPU-Sim PTX:  1 (potential) branch divergence @  PC=0xdb0 (_1.ptx:663) @%p1 bra $Lt_10_44034;
GPGPU-Sim PTX:    immediate post dominator      @  PC=0x2370 (_1.ptx:1495) exit;
GPGPU-Sim PTX:  2 (potential) branch divergence @  PC=0x1028 (_1.ptx:751) @%p2 bra $Lt_10_45570;
GPGPU-Sim PTX:    immediate post dominator      @  PC=0x11b8 (_1.ptx:815) mov.f32 %f108, 0f00000000;   // 0
GPGPU-Sim PTX:  3 (potential) branch divergence @  PC=0x1048 (_1.ptx:756) @!%p3 bra $Lt_10_46082;
GPGPU-Sim PTX:    immediate post dominator      @  PC=0x1090 (_1.ptx:769) mov.f32 %f87, %f82;
GPGPU-Sim PTX:  4 (potential) branch divergence @  PC=0x1058 (_1.ptx:758) bra.uni $Lt_10_45826;
GPGPU-Sim PTX:    immediate post dominator      @  PC=0x1090 (_1.ptx:769) mov.f32 %f87, %f82;
GPGPU-Sim PTX:  5 (potential) branch divergence @  PC=0x1098 (_1.ptx:770) bra.uni $Lt_10_45314;
GPGPU-Sim PTX:    immediate post dominator      @  PC=0x11b8 (_1.ptx:815) mov.f32 %f108, 0f00000000;   // 0
GPGPU-Sim PTX:  6 (potential) branch divergence @  PC=0x1140 (_1.ptx:793) @%p6 bra $Lt_10_46594;
GPGPU-Sim PTX:    immediate post dominator      @  PC=0x11b0 (_1.ptx:813) mov.f32 %f87, %f101;
GPGPU-Sim PTX:  7 (potential) branch divergence @  PC=0x1150 (_1.ptx:795) bra.uni $Lt_10_46850;
GPGPU-Sim PTX:    immediate post dominator      @  PC=0x11b0 (_1.ptx:813) mov.f32 %f87, %f101;
GPGPU-Sim PTX:  8 (potential) branch divergence @  PC=0x1170 (_1.ptx:800) @!%p7 bra $Lt_10_47106;
GPGPU-Sim PTX:    immediate post dominator      @  PC=0x11b0 (_1.ptx:813) mov.f32 %f87, %f101;
GPGPU-Sim PTX:  9 (potential) branch divergence @  PC=0x1180 (_1.ptx:802) bra.uni $Lt_10_46850;
GPGPU-Sim PTX:    immediate post dominator      @  PC=0x11b0 (_1.ptx:813) mov.f32 %f87, %f101;
GPGPU-Sim PTX: 10 (potential) branch divergence @  PC=0x11f8 (_1.ptx:823) @%p8 bra $Lt_10_47362;
GPGPU-Sim PTX:    immediate post dominator      @  PC=0x1210 (_1.ptx:829) add.s32 %r25, %r25, 1;
GPGPU-Sim PTX: 11 (potential) branch divergence @  PC=0x1230 (_1.ptx:833) @%p9 bra $Lt_10_45058;
GPGPU-Sim PTX:    immediate post dominator      @  PC=0x1238 (_1.ptx:834) mov.f32 %f109, 0f00000000;   // 0
GPGPU-Sim PTX: 12 (potential) branch divergence @  PC=0x1280 (_1.ptx:843) @%p10 bra $Lt_10_48130;
GPGPU-Sim PTX:    immediate post dominator      @  PC=0x2140 (_1.ptx:1416) add.s32 %r23, %r23, 1;
GPGPU-Sim PTX: 13 (potential) branch divergence @  PC=0x1330 (_1.ptx:868) @%p11 bra $Lt_10_48898;
GPGPU-Sim PTX:    immediate post dominator      @  PC=0x13b8 (_1.ptx:888) sub.f32 %f136, %f21, %f119;
GPGPU-Sim PTX: 14 (potential) branch divergence @  PC=0x1350 (_1.ptx:873) bra.uni $Lt_10_48642;
GPGPU-Sim PTX:    immediate post dominator      @  PC=0x13b8 (_1.ptx:888) sub.f32 %f136, %f21, %f119;
GPGPU-Sim PTX: 15 (potential) branch divergence @  PC=0x1430 (_1.ptx:903) @!%p12 bra $Lt_10_49410;
GPGPU-Sim PTX:    immediate post dominator      @  PC=0x1470 (_1.ptx:915) mov.f32 %f153, 0f3d4ccccd;   // 0.05
GPGPU-Sim PTX: 16 (potential) branch divergence @  PC=0x1450 (_1.ptx:908) bra.uni $Lt_10_49154;
GPGPU-Sim PTX:    immediate post dominator      @  PC=0x1470 (_1.ptx:915) mov.f32 %f153, 0f3d4ccccd;   // 0.05
GPGPU-Sim PTX: 17 (potential) branch divergence @  PC=0x1578 (_1.ptx:949) @!%p13 bra $Lt_10_58114;
GPGPU-Sim PTX:    immediate post dominator      @  PC=0x2080 (_1.ptx:1388) add.f32 %f399, %f126, %f126;
GPGPU-Sim PTX: 18 (potential) branch divergence @  PC=0x15c0 (_1.ptx:961) @%p14 bra $Lt_10_49922;
GPGPU-Sim PTX:    immediate post dominator      @  PC=0x17b0 (_1.ptx:1039) mov.f32 %f221, 0f00000000;   // 0
GPGPU-Sim PTX: 19 (potential) branch divergence @  PC=0x15e0 (_1.ptx:966) @!%p15 bra $Lt_10_50434;
GPGPU-Sim PTX:    immediate post dominator      @  PC=0x1638 (_1.ptx:982) mov.f32 %f190, %f183;
GPGPU-Sim PTX: 20 (potential) branch divergence @  PC=0x15f0 (_1.ptx:968) bra.uni $Lt_10_50178;
GPGPU-Sim PTX:    immediate post dominator      @  PC=0x1638 (_1.ptx:982) mov.f32 %f190, %f183;
GPGPU-Sim PTX: 21 (potential) branch divergence @  PC=0x1640 (_1.ptx:983) bra.uni $Lt_10_49666;
GPGPU-Sim PTX:    immediate post dominator      @  PC=0x17b0 (_1.ptx:1039) mov.f32 %f221, 0f00000000;   // 0
GPGPU-Sim PTX: 22 (potential) branch divergence @  PC=0x1738 (_1.ptx:1016) @%p18 bra $Lt_10_50946;
GPGPU-Sim PTX:    immediate post dominator      @  PC=0x17a8 (_1.ptx:1036) mov.f32 %f190, %f214;
GPGPU-Sim PTX: 23 (potential) branch divergence @  PC=0x1748 (_1.ptx:1018) bra.uni $Lt_10_51202;
GPGPU-Sim PTX:    immediate post dominator      @  PC=0x17a8 (_1.ptx:1036) mov.f32 %f190, %f214;
GPGPU-Sim PTX: 24 (potential) branch divergence @  PC=0x1768 (_1.ptx:1023) @!%p19 bra $Lt_10_51458;
GPGPU-Sim PTX:    immediate post dominator      @  PC=0x17a8 (_1.ptx:1036) mov.f32 %f190, %f214;
GPGPU-Sim PTX: 25 (potential) branch divergence @  PC=0x1778 (_1.ptx:1025) bra.uni $Lt_10_51202;
GPGPU-Sim PTX:    immediate post dominator      @  PC=0x17a8 (_1.ptx:1036) mov.f32 %f190, %f214;
GPGPU-Sim PTX: 26 (potential) branch divergence @  PC=0x17c0 (_1.ptx:1041) @!%p20 bra $Lt_10_58370;
GPGPU-Sim PTX:    immediate post dominator      @  PC=0x1828 (_1.ptx:1057) add.s32 %r50, %r50, 1;
GPGPU-Sim PTX: 27 (potential) branch divergence @  PC=0x1818 (_1.ptx:1052) @!%p21 bra $Lt_10_58370;
GPGPU-Sim PTX:    immediate post dominator      @  PC=0x1828 (_1.ptx:1057) add.s32 %r50, %r50, 1;
GPGPU-Sim PTX: 28 (potential) branch divergence @  PC=0x1848 (_1.ptx:1061) @%p22 bra $Lt_10_58882;
GPGPU-Sim PTX:    immediate post dominator      @  PC=0x1880 (_1.ptx:1071) @!%p23 bra $Lt_10_58114;
GPGPU-Sim PTX: 29 (potential) branch divergence @  PC=0x1860 (_1.ptx:1064) @%p23 bra $L_10_42498;
GPGPU-Sim PTX:    immediate post dominator      @  PC=0x1880 (_1.ptx:1071) @!%p23 bra $Lt_10_58114;
GPGPU-Sim PTX: 30 (potential) branch divergence @  PC=0x1868 (_1.ptx:1065) bra.uni $L_10_43266;
GPGPU-Sim PTX:    immediate post dominator      @  PC=0x1880 (_1.ptx:1071) @!%p23 bra $Lt_10_58114;
GPGPU-Sim PTX: 31 (potential) branch divergence @  PC=0x1880 (_1.ptx:1071) @!%p23 bra $Lt_10_58114;
GPGPU-Sim PTX:    immediate post dominator      @  PC=0x2080 (_1.ptx:1388) add.f32 %f399, %f126, %f126;
GPGPU-Sim PTX: 32 (potential) branch divergence @  PC=0x19c8 (_1.ptx:1115) @!%p24 bra $Lt_10_51714;
GPGPU-Sim PTX:    immediate post dominator      @  PC=0x2040 (_1.ptx:1375) mov.f32 %f394, 0f3f4ccccd;   // 0.8
GPGPU-Sim PTX: 33 (potential) branch divergence @  PC=0x19d8 (_1.ptx:1118) bra.uni $LDWendi___isnanf_192_1;
GPGPU-Sim PTX:    immediate post dominator      @  PC=0x2040 (_1.ptx:1375) mov.f32 %f394, 0f3f4ccccd;   // 0.8
GPGPU-Sim PTX: 34 (potential) branch divergence @  PC=0x19f8 (_1.ptx:1124) @!%p25 bra $Lt_10_7682;
GPGPU-Sim PTX:    immediate post dominator      @  PC=0x2040 (_1.ptx:1375) mov.f32 %f394, 0f3f4ccccd;   // 0.8
GPGPU-Sim PTX: 35 (potential) branch divergence @  PC=0x1a00 (_1.ptx:1125) bra.uni $Lt_10_7938;
GPGPU-Sim PTX:    immediate post dominator      @  PC=0x1a20 (_1.ptx:1133) mov.f32 %f272, 0f7f800000;   // ((1.0F)/(0.0F))
GPGPU-Sim PTX: 36 (potential) branch divergence @  PC=0x1a18 (_1.ptx:1130) bra.uni $LDWendi___isnanf_192_1;
GPGPU-Sim PTX:    immediate post dominator      @  PC=0x2040 (_1.ptx:1375) mov.f32 %f394, 0f3f4ccccd;   // 0.8
GPGPU-Sim PTX: 37 (potential) branch divergence @  PC=0x1a30 (_1.ptx:1135) @!%p26 bra $Lt_10_52226;
GPGPU-Sim PTX:    immediate post dominator      @  PC=0x2040 (_1.ptx:1375) mov.f32 %f394, 0f3f4ccccd;   // 0.8
GPGPU-Sim PTX: 38 (potential) branch divergence @  PC=0x1a40 (_1.ptx:1138) bra.uni $LDWendi___isnanf_192_1;
GPGPU-Sim PTX:    immediate post dominator      @  PC=0x2040 (_1.ptx:1375) mov.f32 %f394, 0f3f4ccccd;   // 0.8
GPGPU-Sim PTX: 39 (potential) branch divergence @  PC=0x1a58 (_1.ptx:1142) @!%p27 bra $Lt_10_52738;
GPGPU-Sim PTX:    immediate post dominator      @  PC=0x2040 (_1.ptx:1375) mov.f32 %f394, 0f3f4ccccd;   // 0.8
GPGPU-Sim PTX: 40 (potential) branch divergence @  PC=0x1ab8 (_1.ptx:1155) bra.uni $LDWendi___isnanf_192_1;
GPGPU-Sim PTX:    immediate post dominator      @  PC=0x2040 (_1.ptx:1375) mov.f32 %f394, 0f3f4ccccd;   // 0.8
GPGPU-Sim PTX: 41 (potential) branch divergence @  PC=0x1ad0 (_1.ptx:1159) @!%p29 bra $Lt_10_53250;
GPGPU-Sim PTX:    immediate post dominator      @  PC=0x2040 (_1.ptx:1375) mov.f32 %f394, 0f3f4ccccd;   // 0.8
GPGPU-Sim PTX: 42 (potential) branch divergence @  PC=0x1b20 (_1.ptx:1170) @!%p30 bra $Lt_10_53762;
GPGPU-Sim PTX:    immediate post dominator      @  PC=0x1b40 (_1.ptx:1177) mov.f32 %f268, %f284;
GPGPU-Sim PTX: 43 (potential) branch divergence @  PC=0x1b48 (_1.ptx:1178) bra.uni $LDWendi___isnanf_192_1;
GPGPU-Sim PTX:    immediate post dominator      @  PC=0x2040 (_1.ptx:1375) mov.f32 %f394, 0f3f4ccccd;   // 0.8
GPGPU-Sim PTX: 44 (potential) branch divergence @  PC=0x1b60 (_1.ptx:1183) @!%p31 bra $Lt_10_59394;
GPGPU-Sim PTX:    immediate post dominator      @  PC=0x2040 (_1.ptx:1375) mov.f32 %f394, 0f3f4ccccd;   // 0.8
GPGPU-Sim PTX: 45 (potential) branch divergence @  PC=0x1b88 (_1.ptx:1188) @!%p32 bra $Lt_10_59394;
GPGPU-Sim PTX:    immediate post dominator      @  PC=0x2040 (_1.ptx:1375) mov.f32 %f394, 0f3f4ccccd;   // 0.8
GPGPU-Sim PTX: 46 (potential) branch divergence @  PC=0x1ba0 (_1.ptx:1192) bra.uni $LDWendi___isnanf_192_1;
GPGPU-Sim PTX:    immediate post dominator      @  PC=0x2040 (_1.ptx:1375) mov.f32 %f394, 0f3f4ccccd;   // 0.8
GPGPU-Sim PTX: 47 (potential) branch divergence @  PC=0x1bd8 (_1.ptx:1202) @%p33 bra $Lt_10_54530;
GPGPU-Sim PTX:    immediate post dominator      @  PC=0x1c20 (_1.ptx:1216) sub.s32 %r64, %r64, 127;
GPGPU-Sim PTX: 48 (potential) branch divergence @  PC=0x1c10 (_1.ptx:1211) bra.uni $Lt_10_54274;
GPGPU-Sim PTX:    immediate post dominator      @  PC=0x1c20 (_1.ptx:1216) sub.s32 %r64, %r64, 127;
GPGPU-Sim PTX: 49 (potential) branch divergence @  PC=0x1c58 (_1.ptx:1224) @!%p34 bra $Lt_10_54786;
GPGPU-Sim PTX:    immediate post dominator      @  PC=0x1c78 (_1.ptx:1232) mov.f32 %f302, 0fbf800000;   // -1
GPGPU-Sim PTX: 50 (potential) branch divergence @  PC=0x1eb0 (_1.ptx:1312) @%p35 bra $Lt_10_55298;
GPGPU-Sim PTX:    immediate post dominator      @  PC=0x1ed8 (_1.ptx:1321) mov.f32 %f367, %f365;
GPGPU-Sim PTX: 51 (potential) branch divergence @  PC=0x1f98 (_1.ptx:1346) @!%p38 bra $Lt_10_55810;
GPGPU-Sim PTX:    immediate post dominator      @  PC=0x1fa8 (_1.ptx:1351) mov.f32 %f284, %f386;
GPGPU-Sim PTX: 52 (potential) branch divergence @  PC=0x2018 (_1.ptx:1365) @%p39 bra $Lt_10_56322;
GPGPU-Sim PTX:    immediate post dominator      @  PC=0x2038 (_1.ptx:1372) mov.f32 %f268, %f284;
GPGPU-Sim PTX: 53 (potential) branch divergence @  PC=0x2158 (_1.ptx:1419) @%p40 bra $L_10_42242;
GPGPU-Sim PTX:    immediate post dominator      @  PC=0x2170 (_1.ptx:1424) sub.s32 %r86, %r24, 1;
GPGPU-Sim PTX: 54 (potential) branch divergence @  PC=0x2168 (_1.ptx:1421) @%p41 bra $L_10_41474;
GPGPU-Sim PTX:    immediate post dominator      @  PC=0x2170 (_1.ptx:1424) sub.s32 %r86, %r24, 1;
GPGPU-Sim PTX: 55 (potential) branch divergence @  PC=0x2190 (_1.ptx:1428) @%p42 bra $Lt_10_56834;
GPGPU-Sim PTX:    immediate post dominator      @  PC=0x2288 (_1.ptx:1464) ld.global.u32 %r92, [%rd4+0];
GPGPU-Sim PTX: 56 (potential) branch divergence @  PC=0x2280 (_1.ptx:1461) @%p43 bra $Lt_10_57346;
GPGPU-Sim PTX:    immediate post dominator      @  PC=0x2288 (_1.ptx:1464) ld.global.u32 %r92, [%rd4+0];
GPGPU-Sim PTX: ... end of reconvergence points for _Z6renderPjP4Nodejjff
GPGPU-Sim PTX: ... done pre-decoding instructions for '_Z6renderPjP4Nodejjff'.
GPGPU-Sim PTX: instruction assembly for function '_ZN4dim3C1Ejjj'...   done.
GPGPU-Sim PTX: finding reconvergence points for '_ZN4dim3C1Ejjj'...
GPGPU-Sim PTX: Finding dominators for '_ZN4dim3C1Ejjj'...
GPGPU-Sim PTX: Finding immediate dominators for '_ZN4dim3C1Ejjj'...
GPGPU-Sim PTX: Finding postdominators for '_ZN4dim3C1Ejjj'...
GPGPU-Sim PTX: Finding immediate postdominators for '_ZN4dim3C1Ejjj'...
GPGPU-Sim PTX: pre-decoding instructions for '_ZN4dim3C1Ejjj'...
GPGPU-Sim PTX: reconvergence points for _ZN4dim3C1Ejjj...
GPGPU-Sim PTX: ... end of reconvergence points for _ZN4dim3C1Ejjj
GPGPU-Sim PTX: ... done pre-decoding instructions for '_ZN4dim3C1Ejjj'.
GPGPU-Sim PTX: finished parsing EMBEDDED .ptx file _1.ptx
Adding _cuobjdump_1.ptx with cubin handle 1
GPGPU-Sim PTX: extracting embedded .ptx to temporary file "_ptx_IUMKd6"
Running: cat _ptx_IUMKd6 | sed 's/.version 1.5/.version 1.4/' | sed 's/, texmode_independent//' | sed 's/\(\.extern \.const\[1\] .b8 \w\+\)\[\]/\1\[1\]/' | sed 's/const\[.\]/const\[0\]/g' > _ptx2_VKZUpD
GPGPU-Sim PTX: generating ptxinfo using "$CUDA_INSTALL_PATH/bin/ptxas --gpu-name=sm_20 -v _ptx2_VKZUpD --output-file  /dev/null 2> _ptx_IUMKd6info"
GPGPU-Sim PTX: Kernel '_Z6renderPjP4Nodejjff' : regs=45, lmem=4, smem=0, cmem=180
GPGPU-Sim PTX: removing ptxinfo using "rm -f _ptx_IUMKd6 _ptx2_VKZUpD _ptx_IUMKd6info"
GPGPU-Sim PTX: loading globals with explicit initializers... 
GPGPU-Sim PTX: finished loading globals (0 bytes total).
GPGPU-Sim PTX: loading constants with explicit initializers...  done.
GPGPU-Sim PTX: __cudaRegisterVar: hostVar = 0x62fda0; deviceAddress = MView; deviceName = MView
GPGPU-Sim PTX: __cudaRegisterVar: Registering const memory space of 48 bytes
GPGPU-Sim PTX registering constant MView (48 bytes) to name mapping
GPGPU-Sim PTX: __cudaRegisterVar: hostVar = 0x62fde0; deviceAddress = cnode; deviceName = cnode
GPGPU-Sim PTX: __cudaRegisterVar: Registering const memory space of 160 bytes
GPGPU-Sim PTX registering constant cnode (160 bytes) to name mapping
GPGPU-Sim PTX: cudaMemcpyToSymbol: symbol = 0x62fde0
GPGPU-Sim PTX: starting gpgpu_ptx_sim_memcpy_symbol with hostVar 0x0x62fde0
GPGPU-Sim PTX: gpgpu_ptx_sim_memcpy_symbol: Found PTX symbol w/ hostVar=0x62fde0
GPGPU-Sim PTX: gpgpu_ptx_sim_memcpy_symbol: copying const memory 160 bytes  to  symbol cnode+0 @0x100 ...
GPGPU-Sim PTX: cudaMemcpyToSymbol: symbol = 0x62fda0
GPGPU-Sim PTX: starting gpgpu_ptx_sim_memcpy_symbol with hostVar 0x0x62fda0
GPGPU-Sim PTX: gpgpu_ptx_sim_memcpy_symbol: Found PTX symbol w/ hostVar=0x62fda0
GPGPU-Sim PTX: gpgpu_ptx_sim_memcpy_symbol: copying const memory 48 bytes  to  symbol MView+0 @0x200 ...

GPGPU-Sim PTX: cudaLaunch for 0x0x40ce13 (mode=performance simulation) on stream 0
GPGPU-Sim PTX: pushing kernel '_Z6renderPjP4Nodejjff' to stream 0, gridDim= (16,32,1) blockDim = (16,8,1) 
kernel '_Z6renderPjP4Nodejjff' transfer to GPU hardware scheduler
GPGPU-Sim uArch: Shader 1 bind to kernel 1 '_Z6renderPjP4Nodejjff'
GPGPU-Sim uArch: CTA/core = 5, limited by: regs
GPGPU-Sim uArch: core:  1, cta: 0 initialized @(1,0)
GPGPU-Sim uArch: Shader 2 bind to kernel 1 '_Z6renderPjP4Nodejjff'
GPGPU-Sim uArch: core:  2, cta: 0 initialized @(1,0)
GPGPU-Sim uArch: Shader 3 bind to kernel 1 '_Z6renderPjP4Nodejjff'
GPGPU-Sim uArch: core:  3, cta: 0 initialized @(1,0)
GPGPU-Sim uArch: Shader 4 bind to kernel 1 '_Z6renderPjP4Nodejjff'
GPGPU-Sim uArch: core:  4, cta: 0 initialized @(1,0)
GPGPU-Sim uArch: Shader 5 bind to kernel 1 '_Z6renderPjP4Nodejjff'
GPGPU-Sim uArch: core:  5, cta: 0 initialized @(1,0)
GPGPU-Sim uArch: Shader 6 bind to kernel 1 '_Z6renderPjP4Nodejjff'
GPGPU-Sim uArch: core:  6, cta: 0 initialized @(1,0)
GPGPU-Sim uArch: Shader 7 bind to kernel 1 '_Z6renderPjP4Nodejjff'
GPGPU-Sim uArch: core:  7, cta: 0 initialized @(1,0)
GPGPU-Sim uArch: Shader 8 bind to kernel 1 '_Z6renderPjP4Nodejjff'
GPGPU-Sim uArch: core:  8, cta: 0 initialized @(1,0)
GPGPU-Sim uArch: Shader 9 bind to kernel 1 '_Z6renderPjP4Nodejjff'
GPGPU-Sim uArch: core:  9, cta: 0 initialized @(1,0)
GPGPU-Sim uArch: Shader 10 bind to kernel 1 '_Z6renderPjP4Nodejjff'
GPGPU-Sim uArch: core: 10, cta: 0 initialized @(1,0)
GPGPU-Sim uArch: Shader 11 bind to kernel 1 '_Z6renderPjP4Nodejjff'
GPGPU-Sim uArch: core: 11, cta: 0 initialized @(1,0)
GPGPU-Sim uArch: Shader 12 bind to kernel 1 '_Z6renderPjP4Nodejjff'
GPGPU-Sim uArch: core: 12, cta: 0 initialized @(1,0)
GPGPU-Sim uArch: Shader 13 bind to kernel 1 '_Z6renderPjP4Nodejjff'
GPGPU-Sim uArch: core: 13, cta: 0 initialized @(1,0)
GPGPU-Sim uArch: Shader 14 bind to kernel 1 '_Z6renderPjP4Nodejjff'
GPGPU-Sim uArch: core: 14, cta: 0 initialized @(1,0)
GPGPU-Sim uArch: Shader 0 bind to kernel 1 '_Z6renderPjP4Nodejjff'
GPGPU-Sim uArch: core:  0, cta: 0 initialized @(1,0)
GPGPU-Sim uArch: core:  1, cta: 1 initialized @(2,0)
GPGPU-Sim uArch: core:  2, cta: 1 initialized @(2,0)
GPGPU-Sim uArch: core:  3, cta: 1 initialized @(2,0)
GPGPU-Sim uArch: core:  4, cta: 1 initialized @(2,0)
GPGPU-Sim uArch: core:  5, cta: 1 initialized @(2,0)
GPGPU-Sim uArch: core:  6, cta: 1 initialized @(2,0)
GPGPU-Sim uArch: core:  7, cta: 1 initialized @(2,0)
GPGPU-Sim uArch: core:  8, cta: 1 initialized @(2,0)
GPGPU-Sim uArch: core:  9, cta: 1 initialized @(2,0)
GPGPU-Sim uArch: core: 10, cta: 1 initialized @(2,0)
GPGPU-Sim uArch: core: 11, cta: 1 initialized @(2,0)
GPGPU-Sim uArch: core: 12, cta: 1 initialized @(2,0)
GPGPU-Sim uArch: core: 13, cta: 1 initialized @(2,0)
GPGPU-Sim uArch: core: 14, cta: 1 initialized @(2,0)
GPGPU-Sim uArch: core:  0, cta: 1 initialized @(2,0)
GPGPU-Sim uArch: core:  1, cta: 2 initialized @(3,0)
GPGPU-Sim uArch: core:  2, cta: 2 initialized @(3,0)
GPGPU-Sim uArch: core:  3, cta: 2 initialized @(3,0)
GPGPU-Sim uArch: core:  4, cta: 2 initialized @(3,0)
GPGPU-Sim uArch: core:  5, cta: 2 initialized @(3,0)
GPGPU-Sim uArch: core:  6, cta: 2 initialized @(3,0)
GPGPU-Sim uArch: core:  7, cta: 2 initialized @(3,0)
GPGPU-Sim uArch: core:  8, cta: 2 initialized @(3,0)
GPGPU-Sim uArch: core:  9, cta: 2 initialized @(3,0)
GPGPU-Sim uArch: core: 10, cta: 2 initialized @(3,0)
GPGPU-Sim uArch: core: 11, cta: 2 initialized @(3,0)
GPGPU-Sim uArch: core: 12, cta: 2 initialized @(3,0)
GPGPU-Sim uArch: core: 13, cta: 2 initialized @(3,0)
GPGPU-Sim uArch: core: 14, cta: 2 initialized @(3,0)
GPGPU-Sim uArch: core:  0, cta: 2 initialized @(3,0)
GPGPU-Sim uArch: core:  1, cta: 3 initialized @(4,0)
GPGPU-Sim uArch: core:  2, cta: 3 initialized @(4,0)
GPGPU-Sim uArch: core:  3, cta: 3 initialized @(4,0)
GPGPU-Sim uArch: core:  4, cta: 3 initialized @(4,0)
GPGPU-Sim uArch: core:  5, cta: 3 initialized @(4,0)
GPGPU-Sim uArch: core:  6, cta: 3 initialized @(4,0)
GPGPU-Sim uArch: core:  7, cta: 3 initialized @(4,0)
GPGPU-Sim uArch: core:  8, cta: 3 initialized @(4,0)
GPGPU-Sim uArch: core:  9, cta: 3 initialized @(4,0)
GPGPU-Sim uArch: core: 10, cta: 3 initialized @(4,0)
GPGPU-Sim uArch: core: 11, cta: 3 initialized @(4,0)
GPGPU-Sim uArch: core: 12, cta: 3 initialized @(4,0)
GPGPU-Sim uArch: core: 13, cta: 3 initialized @(4,0)
GPGPU-Sim uArch: core: 14, cta: 3 initialized @(4,0)
GPGPU-Sim uArch: core:  0, cta: 3 initialized @(4,0)
GPGPU-Sim uArch: core:  1, cta: 4 initialized @(5,0)
GPGPU-Sim uArch: core:  2, cta: 4 initialized @(5,0)
GPGPU-Sim uArch: core:  3, cta: 4 initialized @(5,0)
GPGPU-Sim uArch: core:  4, cta: 4 initialized @(5,0)
GPGPU-Sim uArch: core:  5, cta: 4 initialized @(5,0)
GPGPU-Sim uArch: core:  6, cta: 4 initialized @(5,0)
GPGPU-Sim uArch: core:  7, cta: 4 initialized @(5,0)
GPGPU-Sim uArch: core:  8, cta: 4 initialized @(5,0)
GPGPU-Sim uArch: core:  9, cta: 4 initialized @(5,0)
GPGPU-Sim uArch: core: 10, cta: 4 initialized @(5,0)
GPGPU-Sim uArch: core: 11, cta: 4 initialized @(5,0)
GPGPU-Sim uArch: core: 12, cta: 4 initialized @(5,0)
GPGPU-Sim uArch: core: 13, cta: 4 initialized @(5,0)
GPGPU-Sim uArch: core: 14, cta: 4 initialized @(5,0)
GPGPU-Sim uArch: core:  0, cta: 4 initialized @(5,0)
GPGPU-Sim uArch: cycles simulated: 500  inst.: 36032 (ipc=72.1) sim_rate=18016 (inst/sec) elapsed = 0:0:00:02 / Mon Feb 29 20:26:26 2016
GPGPU-Sim PTX: 100000 instructions simulated : ctaid=(9,0,0) tid=(15,1,0)
GPGPU-Sim uArch: cycles simulated: 3500  inst.: 170464 (ipc=48.7) sim_rate=56821 (inst/sec) elapsed = 0:0:00:03 / Mon Feb 29 20:26:27 2016
GPGPU-Sim PTX: 200000 instructions simulated : ctaid=(2,0,0) tid=(15,5,0)
GPGPU-Sim PTX: 300000 instructions simulated : ctaid=(7,0,0) tid=(15,5,0)
GPGPU-Sim PTX: 400000 instructions simulated : ctaid=(4,0,0) tid=(15,1,0)
GPGPU-Sim uArch: cycles simulated: 5500  inst.: 401600 (ipc=73.0) sim_rate=100400 (inst/sec) elapsed = 0:0:00:04 / Mon Feb 29 20:26:28 2016
GPGPU-Sim PTX: 500000 instructions simulated : ctaid=(0,3,0) tid=(15,5,0)
GPGPU-Sim PTX: 600000 instructions simulated : ctaid=(1,1,0) tid=(15,5,0)
GPGPU-Sim PTX: 700000 instructions simulated : ctaid=(0,0,0) tid=(15,7,0)
GPGPU-Sim uArch: cycles simulated: 7000  inst.: 701216 (ipc=100.2) sim_rate=140243 (inst/sec) elapsed = 0:0:00:05 / Mon Feb 29 20:26:29 2016
GPGPU-Sim PTX: 800000 instructions simulated : ctaid=(2,3,0) tid=(15,7,0)
GPGPU-Sim PTX: 900000 instructions simulated : ctaid=(3,2,0) tid=(15,7,0)
GPGPU-Sim PTX: 1000000 instructions simulated : ctaid=(0,4,0) tid=(15,3,0)
GPGPU-Sim PTX: 1100000 instructions simulated : ctaid=(2,4,0) tid=(15,3,0)
GPGPU-Sim uArch: cycles simulated: 8500  inst.: 1127840 (ipc=132.7) sim_rate=187973 (inst/sec) elapsed = 0:0:00:06 / Mon Feb 29 20:26:30 2016
GPGPU-Sim PTX: 1200000 instructions simulated : ctaid=(12,3,0) tid=(15,5,0)
GPGPU-Sim PTX: 1300000 instructions simulated : ctaid=(4,1,0) tid=(15,1,0)
GPGPU-Sim PTX: 1400000 instructions simulated : ctaid=(3,2,0) tid=(15,7,0)
GPGPU-Sim PTX: 1500000 instructions simulated : ctaid=(11,2,0) tid=(15,3,0)
GPGPU-Sim PTX: 1600000 instructions simulated : ctaid=(10,1,0) tid=(15,7,0)
GPGPU-Sim PTX: 1700000 instructions simulated : ctaid=(6,2,0) tid=(15,5,0)
GPGPU-Sim PTX: 1800000 instructions simulated : ctaid=(0,0,0) tid=(15,7,0)
GPGPU-Sim PTX: 1900000 instructions simulated : ctaid=(7,0,0) tid=(15,5,0)
GPGPU-Sim uArch: cycles simulated: 10000  inst.: 1930432 (ipc=193.0) sim_rate=275776 (inst/sec) elapsed = 0:0:00:07 / Mon Feb 29 20:26:31 2016
GPGPU-Sim PTX: 2000000 instructions simulated : ctaid=(6,2,0) tid=(15,1,0)
GPGPU-Sim PTX: 2100000 instructions simulated : ctaid=(15,1,0) tid=(15,7,0)
GPGPU-Sim PTX: 2200000 instructions simulated : ctaid=(11,1,0) tid=(15,5,0)
GPGPU-Sim PTX: 2300000 instructions simulated : ctaid=(12,1,0) tid=(15,1,0)
GPGPU-Sim uArch: cycles simulated: 10500  inst.: 2282176 (ipc=217.4) sim_rate=285272 (inst/sec) elapsed = 0:0:00:08 / Mon Feb 29 20:26:32 2016
GPGPU-Sim PTX: 2400000 instructions simulated : ctaid=(8,2,0) tid=(15,5,0)
GPGPU-Sim PTX: 2500000 instructions simulated : ctaid=(15,1,0) tid=(15,5,0)
GPGPU-Sim PTX: 2600000 instructions simulated : ctaid=(11,2,0) tid=(15,1,0)
GPGPU-Sim PTX: 2700000 instructions simulated : ctaid=(9,2,0) tid=(15,3,0)
GPGPU-Sim PTX: 2800000 instructions simulated : ctaid=(10,3,0) tid=(15,1,0)
GPGPU-Sim PTX: 2900000 instructions simulated : ctaid=(15,1,0) tid=(15,3,0)
GPGPU-Sim PTX: 3000000 instructions simulated : ctaid=(1,4,0) tid=(15,5,0)
GPGPU-Sim uArch: cycles simulated: 11500  inst.: 3000032 (ipc=260.9) sim_rate=333336 (inst/sec) elapsed = 0:0:00:09 / Mon Feb 29 20:26:33 2016
GPGPU-Sim PTX: 3100000 instructions simulated : ctaid=(14,1,0) tid=(15,5,0)
GPGPU-Sim PTX: 3200000 instructions simulated : ctaid=(10,3,0) tid=(15,7,0)
GPGPU-Sim PTX: 3300000 instructions simulated : ctaid=(5,3,0) tid=(15,3,0)
GPGPU-Sim PTX: 3400000 instructions simulated : ctaid=(7,4,0) tid=(15,5,0)
GPGPU-Sim PTX: 3500000 instructions simulated : ctaid=(10,2,0) tid=(15,3,0)
GPGPU-Sim uArch: cycles simulated: 12500  inst.: 3461312 (ipc=276.9) sim_rate=346131 (inst/sec) elapsed = 0:0:00:10 / Mon Feb 29 20:26:34 2016
GPGPU-Sim PTX: 3600000 instructions simulated : ctaid=(3,0,0) tid=(15,3,0)
GPGPU-Sim PTX: 3700000 instructions simulated : ctaid=(9,0,0) tid=(15,5,0)
GPGPU-Sim PTX: 3800000 instructions simulated : ctaid=(12,2,0) tid=(15,5,0)
GPGPU-Sim PTX: 3900000 instructions simulated : ctaid=(1,3,0) tid=(15,1,0)
GPGPU-Sim uArch: cycles simulated: 13500  inst.: 3826752 (ipc=283.5) sim_rate=347886 (inst/sec) elapsed = 0:0:00:11 / Mon Feb 29 20:26:35 2016
GPGPU-Sim PTX: 4000000 instructions simulated : ctaid=(0,2,0) tid=(15,1,0)
GPGPU-Sim PTX: 4100000 instructions simulated : ctaid=(15,1,0) tid=(15,3,0)
GPGPU-Sim PTX: 4200000 instructions simulated : ctaid=(11,1,0) tid=(15,3,0)
GPGPU-Sim PTX: 4300000 instructions simulated : ctaid=(14,1,0) tid=(15,1,0)
GPGPU-Sim PTX: 4400000 instructions simulated : ctaid=(0,2,0) tid=(15,5,0)
GPGPU-Sim uArch: cycles simulated: 15000  inst.: 4309920 (ipc=287.3) sim_rate=359160 (inst/sec) elapsed = 0:0:00:12 / Mon Feb 29 20:26:36 2016
GPGPU-Sim PTX: 4500000 instructions simulated : ctaid=(15,3,0) tid=(15,3,0)
GPGPU-Sim PTX: 4600000 instructions simulated : ctaid=(13,0,0) tid=(8,0,0)
GPGPU-Sim PTX: 4700000 instructions simulated : ctaid=(15,1,0) tid=(13,1,0)
GPGPU-Sim PTX: 4800000 instructions simulated : ctaid=(14,0,0) tid=(15,4,0)
GPGPU-Sim PTX: 4900000 instructions simulated : ctaid=(0,4,0) tid=(15,4,0)
GPGPU-Sim PTX: 5000000 instructions simulated : ctaid=(15,2,0) tid=(15,2,0)
GPGPU-Sim uArch: cycles simulated: 16000  inst.: 4916240 (ipc=307.3) sim_rate=378172 (inst/sec) elapsed = 0:0:00:13 / Mon Feb 29 20:26:37 2016
GPGPU-Sim PTX: 5100000 instructions simulated : ctaid=(13,0,0) tid=(15,0,0)
GPGPU-Sim PTX: 5200000 instructions simulated : ctaid=(10,1,0) tid=(15,2,0)
GPGPU-Sim PTX: 5300000 instructions simulated : ctaid=(11,2,0) tid=(15,4,0)
GPGPU-Sim PTX: 5400000 instructions simulated : ctaid=(10,1,0) tid=(15,6,0)
GPGPU-Sim PTX: 5500000 instructions simulated : ctaid=(1,0,0) tid=(12,5,0)
GPGPU-Sim PTX: 5600000 instructions simulated : ctaid=(11,0,0) tid=(1,7,0)
GPGPU-Sim PTX: 5700000 instructions simulated : ctaid=(10,4,0) tid=(1,4,0)
GPGPU-Sim PTX: 5800000 instructions simulated : ctaid=(6,3,0) tid=(15,6,0)
GPGPU-Sim uArch: cycles simulated: 17000  inst.: 5666337 (ipc=333.3) sim_rate=404738 (inst/sec) elapsed = 0:0:00:14 / Mon Feb 29 20:26:38 2016
GPGPU-Sim PTX: 5900000 instructions simulated : ctaid=(9,0,0) tid=(12,0,0)
GPGPU-Sim PTX: 6000000 instructions simulated : ctaid=(1,4,0) tid=(15,2,0)
GPGPU-Sim uArch: cycles simulated: 17500  inst.: 5897092 (ipc=337.0) sim_rate=393139 (inst/sec) elapsed = 0:0:00:15 / Mon Feb 29 20:26:39 2016
GPGPU-Sim PTX: 6100000 instructions simulated : ctaid=(11,0,0) tid=(11,7,0)
GPGPU-Sim PTX: 6200000 instructions simulated : ctaid=(8,3,0) tid=(11,7,0)
GPGPU-Sim PTX: 6300000 instructions simulated : ctaid=(1,2,0) tid=(11,5,0)
GPGPU-Sim PTX: 6400000 instructions simulated : ctaid=(11,2,0) tid=(11,1,0)
GPGPU-Sim PTX: 6500000 instructions simulated : ctaid=(13,3,0) tid=(11,6,0)
GPGPU-Sim uArch: cycles simulated: 19500  inst.: 6349860 (ipc=325.6) sim_rate=396866 (inst/sec) elapsed = 0:0:00:16 / Mon Feb 29 20:26:40 2016
GPGPU-Sim PTX: 6600000 instructions simulated : ctaid=(2,3,0) tid=(11,1,0)
GPGPU-Sim PTX: 6700000 instructions simulated : ctaid=(10,1,0) tid=(11,5,0)
GPGPU-Sim PTX: 6800000 instructions simulated : ctaid=(1,3,0) tid=(11,7,0)
GPGPU-Sim PTX: 6900000 instructions simulated : ctaid=(15,0,0) tid=(11,7,0)
GPGPU-Sim PTX: 7000000 instructions simulated : ctaid=(9,1,0) tid=(11,1,0)
GPGPU-Sim PTX: 7100000 instructions simulated : ctaid=(11,3,0) tid=(11,1,0)
GPGPU-Sim uArch: cycles simulated: 21000  inst.: 6944644 (ipc=330.7) sim_rate=408508 (inst/sec) elapsed = 0:0:00:17 / Mon Feb 29 20:26:41 2016
GPGPU-Sim PTX: 7200000 instructions simulated : ctaid=(8,3,0) tid=(11,3,0)
GPGPU-Sim PTX: 7300000 instructions simulated : ctaid=(5,3,0) tid=(11,5,0)
GPGPU-Sim PTX: 7400000 instructions simulated : ctaid=(15,1,0) tid=(11,7,0)
GPGPU-Sim uArch: cycles simulated: 22000  inst.: 7232612 (ipc=328.8) sim_rate=401811 (inst/sec) elapsed = 0:0:00:18 / Mon Feb 29 20:26:42 2016
GPGPU-Sim PTX: 7500000 instructions simulated : ctaid=(12,2,0) tid=(11,7,0)
GPGPU-Sim PTX: 7600000 instructions simulated : ctaid=(10,0,0) tid=(11,3,0)
GPGPU-Sim PTX: 7700000 instructions simulated : ctaid=(3,0,0) tid=(11,7,0)
GPGPU-Sim PTX: 7800000 instructions simulated : ctaid=(12,0,0) tid=(11,7,0)
GPGPU-Sim uArch: cycles simulated: 23000  inst.: 7595172 (ipc=330.2) sim_rate=399745 (inst/sec) elapsed = 0:0:00:19 / Mon Feb 29 20:26:43 2016
GPGPU-Sim PTX: 7900000 instructions simulated : ctaid=(12,2,0) tid=(11,3,0)
GPGPU-Sim PTX: 8000000 instructions simulated : ctaid=(7,3,0) tid=(11,1,0)
GPGPU-Sim PTX: 8100000 instructions simulated : ctaid=(8,3,0) tid=(11,3,0)
GPGPU-Sim PTX: 8200000 instructions simulated : ctaid=(10,4,0) tid=(11,1,0)
GPGPU-Sim PTX: 8300000 instructions simulated : ctaid=(2,1,0) tid=(11,5,0)
GPGPU-Sim uArch: cycles simulated: 24500  inst.: 8137732 (ipc=332.2) sim_rate=406886 (inst/sec) elapsed = 0:0:00:20 / Mon Feb 29 20:26:44 2016
GPGPU-Sim PTX: 8400000 instructions simulated : ctaid=(2,1,0) tid=(11,7,0)
GPGPU-Sim PTX: 8500000 instructions simulated : ctaid=(0,3,0) tid=(11,1,0)
GPGPU-Sim PTX: 8600000 instructions simulated : ctaid=(4,1,0) tid=(0,1,0)
GPGPU-Sim PTX: 8700000 instructions simulated : ctaid=(3,0,0) tid=(5,4,0)
GPGPU-Sim PTX: 8800000 instructions simulated : ctaid=(7,2,0) tid=(1,0,0)
GPGPU-Sim PTX: 8900000 instructions simulated : ctaid=(5,0,0) tid=(11,3,0)
GPGPU-Sim PTX: 9000000 instructions simulated : ctaid=(8,0,0) tid=(11,1,0)
GPGPU-Sim PTX: 9100000 instructions simulated : ctaid=(8,3,0) tid=(1,2,0)
GPGPU-Sim uArch: cycles simulated: 25500  inst.: 8928324 (ipc=350.1) sim_rate=425158 (inst/sec) elapsed = 0:0:00:21 / Mon Feb 29 20:26:45 2016
GPGPU-Sim PTX: 9200000 instructions simulated : ctaid=(3,2,0) tid=(3,7,0)
GPGPU-Sim PTX: 9300000 instructions simulated : ctaid=(14,1,0) tid=(1,0,0)
GPGPU-Sim PTX: 9400000 instructions simulated : ctaid=(14,0,0) tid=(11,1,0)
GPGPU-Sim PTX: 9500000 instructions simulated : ctaid=(15,1,0) tid=(10,1,0)
GPGPU-Sim uArch: cycles simulated: 26000  inst.: 9329987 (ipc=358.8) sim_rate=424090 (inst/sec) elapsed = 0:0:00:22 / Mon Feb 29 20:26:46 2016
GPGPU-Sim PTX: 9600000 instructions simulated : ctaid=(5,1,0) tid=(3,7,0)
GPGPU-Sim PTX: 9700000 instructions simulated : ctaid=(14,0,0) tid=(10,1,0)
GPGPU-Sim PTX: 9800000 instructions simulated : ctaid=(3,0,0) tid=(9,4,0)
GPGPU-Sim PTX: 9900000 instructions simulated : ctaid=(13,3,0) tid=(15,3,0)
GPGPU-Sim PTX: 10000000 instructions simulated : ctaid=(15,3,0) tid=(14,7,0)
GPGPU-Sim PTX: 10100000 instructions simulated : ctaid=(8,0,0) tid=(11,0,0)
GPGPU-Sim PTX: 10200000 instructions simulated : ctaid=(9,1,0) tid=(2,0,0)
GPGPU-Sim uArch: cycles simulated: 27500  inst.: 9931634 (ipc=361.2) sim_rate=431810 (inst/sec) elapsed = 0:0:00:23 / Mon Feb 29 20:26:47 2016
GPGPU-Sim PTX: 10300000 instructions simulated : ctaid=(6,1,0) tid=(5,4,0)
GPGPU-Sim PTX: 10400000 instructions simulated : ctaid=(8,1,0) tid=(13,2,0)
GPGPU-Sim uArch: Shader 4 finished CTA #1 (28252,0), 4 CTAs running
GPGPU-Sim uArch: core:  4, cta: 1 initialized @(28253,0)
GPGPU-Sim uArch: Shader 6 finished CTA #2 (28256,0), 4 CTAs running
GPGPU-Sim uArch: core:  6, cta: 2 initialized @(28257,0)
GPGPU-Sim uArch: Shader 0 finished CTA #0 (28272,0), 4 CTAs running
GPGPU-Sim uArch: core:  0, cta: 0 initialized @(28273,0)
GPGPU-Sim uArch: Shader 0 finished CTA #1 (28290,0), 4 CTAs running
GPGPU-Sim uArch: core:  0, cta: 1 initialized @(28291,0)
GPGPU-Sim uArch: Shader 1 finished CTA #1 (28294,0), 4 CTAs running
GPGPU-Sim uArch: core:  1, cta: 1 initialized @(28295,0)
GPGPU-Sim uArch: Shader 6 finished CTA #3 (28303,0), 4 CTAs running
GPGPU-Sim uArch: core:  6, cta: 3 initialized @(28304,0)
GPGPU-Sim uArch: Shader 4 finished CTA #2 (28306,0), 4 CTAs running
GPGPU-Sim uArch: core:  4, cta: 2 initialized @(28307,0)
GPGPU-Sim uArch: Shader 8 finished CTA #2 (28316,0), 4 CTAs running
GPGPU-Sim uArch: core:  8, cta: 2 initialized @(28317,0)
GPGPU-Sim uArch: Shader 9 finished CTA #3 (28320,0), 4 CTAs running
GPGPU-Sim uArch: core:  9, cta: 3 initialized @(28321,0)
GPGPU-Sim uArch: Shader 9 finished CTA #4 (28328,0), 4 CTAs running
GPGPU-Sim uArch: core:  9, cta: 4 initialized @(28329,0)
GPGPU-Sim uArch: Shader 6 finished CTA #4 (28334,0), 4 CTAs running
GPGPU-Sim uArch: core:  6, cta: 4 initialized @(28335,0)
GPGPU-Sim uArch: Shader 8 finished CTA #3 (28352,0), 4 CTAs running
GPGPU-Sim uArch: core:  8, cta: 3 initialized @(28353,0)
GPGPU-Sim uArch: Shader 1 finished CTA #0 (28372,0), 4 CTAs running
GPGPU-Sim uArch: core:  1, cta: 0 initialized @(28373,0)
GPGPU-Sim uArch: Shader 8 finished CTA #4 (28388,0), 4 CTAs running
GPGPU-Sim uArch: core:  8, cta: 4 initialized @(28389,0)
GPGPU-Sim uArch: Shader 14 finished CTA #0 (28392,0), 4 CTAs running
GPGPU-Sim uArch: core: 14, cta: 0 initialized @(28393,0)
GPGPU-Sim uArch: Shader 1 finished CTA #2 (28394,0), 4 CTAs running
GPGPU-Sim uArch: core:  1, cta: 2 initialized @(28395,0)
GPGPU-Sim uArch: Shader 4 finished CTA #4 (28410,0), 4 CTAs running
GPGPU-Sim uArch: core:  4, cta: 4 initialized @(28411,0)
GPGPU-Sim uArch: Shader 0 finished CTA #2 (28418,0), 4 CTAs running
GPGPU-Sim uArch: Shader 2 finished CTA #4 (28418,0), 4 CTAs running
GPGPU-Sim uArch: core:  0, cta: 2 initialized @(28419,0)
GPGPU-Sim uArch: core:  2, cta: 4 initialized @(28419,0)
GPGPU-Sim uArch: Shader 3 finished CTA #0 (28430,0), 4 CTAs running
GPGPU-Sim uArch: core:  3, cta: 0 initialized @(28431,0)
GPGPU-Sim uArch: Shader 0 finished CTA #4 (28432,0), 4 CTAs running
GPGPU-Sim uArch: Shader 4 finished CTA #3 (28432,0), 4 CTAs running
GPGPU-Sim uArch: core:  4, cta: 3 initialized @(28433,0)
GPGPU-Sim uArch: core:  0, cta: 4 initialized @(28433,0)
GPGPU-Sim uArch: Shader 2 finished CTA #0 (28442,0), 4 CTAs running
GPGPU-Sim uArch: core:  2, cta: 0 initialized @(28443,0)
GPGPU-Sim uArch: Shader 1 finished CTA #4 (28446,0), 4 CTAs running
GPGPU-Sim uArch: core:  1, cta: 4 initialized @(28447,0)
GPGPU-Sim uArch: Shader 2 finished CTA #1 (28447,0), 4 CTAs running
GPGPU-Sim uArch: core:  2, cta: 1 initialized @(28448,0)
GPGPU-Sim uArch: Shader 2 finished CTA #2 (28452,0), 4 CTAs running
GPGPU-Sim uArch: core:  2, cta: 2 initialized @(28453,0)
GPGPU-Sim uArch: Shader 3 finished CTA #1 (28458,0), 4 CTAs running
GPGPU-Sim uArch: core:  3, cta: 1 initialized @(28459,0)
GPGPU-Sim uArch: Shader 2 finished CTA #3 (28476,0), 4 CTAs running
GPGPU-Sim uArch: core:  2, cta: 3 initialized @(28477,0)
GPGPU-Sim uArch: Shader 0 finished CTA #3 (28478,0), 4 CTAs running
GPGPU-Sim uArch: core:  0, cta: 3 initialized @(28479,0)
GPGPU-Sim uArch: Shader 5 finished CTA #2 (28481,0), 4 CTAs running
GPGPU-Sim uArch: core:  5, cta: 2 initialized @(28482,0)
GPGPU-Sim uArch: cycles simulated: 28500  inst.: 10218665 (ipc=358.5) sim_rate=425777 (inst/sec) elapsed = 0:0:00:24 / Mon Feb 29 20:26:48 2016
GPGPU-Sim PTX: 10500000 instructions simulated : ctaid=(11,0,0) tid=(5,0,0)
GPGPU-Sim uArch: Shader 3 finished CTA #4 (28578,0), 4 CTAs running
GPGPU-Sim uArch: core:  3, cta: 4 initialized @(28579,0)
GPGPU-Sim uArch: Shader 1 finished CTA #3 (28590,0), 4 CTAs running
GPGPU-Sim uArch: Shader 3 finished CTA #2 (28590,0), 4 CTAs running
GPGPU-Sim uArch: core:  1, cta: 3 initialized @(28591,0)
GPGPU-Sim uArch: core:  3, cta: 2 initialized @(28591,0)
GPGPU-Sim uArch: Shader 7 finished CTA #3 (28612,0), 4 CTAs running
GPGPU-Sim uArch: core:  7, cta: 3 initialized @(28613,0)
GPGPU-Sim uArch: Shader 3 finished CTA #3 (28618,0), 4 CTAs running
GPGPU-Sim uArch: core:  3, cta: 3 initialized @(28619,0)
GPGPU-Sim uArch: Shader 7 finished CTA #4 (28622,0), 4 CTAs running
GPGPU-Sim uArch: core:  7, cta: 4 initialized @(28623,0)
GPGPU-Sim uArch: Shader 5 finished CTA #3 (28660,0), 4 CTAs running
GPGPU-Sim uArch: core:  5, cta: 3 initialized @(28661,0)
GPGPU-Sim uArch: Shader 10 finished CTA #4 (28661,0), 4 CTAs running
GPGPU-Sim uArch: core: 10, cta: 4 initialized @(28662,0)
GPGPU-Sim uArch: Shader 5 finished CTA #4 (28689,0), 4 CTAs running
GPGPU-Sim uArch: core:  5, cta: 4 initialized @(28690,0)
GPGPU-Sim PTX: 10600000 instructions simulated : ctaid=(10,1,0) tid=(11,2,0)
GPGPU-Sim PTX: 10700000 instructions simulated : ctaid=(0,7,0) tid=(1,5,0)
GPGPU-Sim uArch: cycles simulated: 29500  inst.: 10513141 (ipc=356.4) sim_rate=420525 (inst/sec) elapsed = 0:0:00:25 / Mon Feb 29 20:26:49 2016
GPGPU-Sim PTX: 10800000 instructions simulated : ctaid=(6,4,0) tid=(4,6,0)
GPGPU-Sim PTX: 10900000 instructions simulated : ctaid=(3,6,0) tid=(13,0,0)
GPGPU-Sim PTX: 11000000 instructions simulated : ctaid=(15,4,0) tid=(1,5,0)
GPGPU-Sim PTX: 11100000 instructions simulated : ctaid=(2,5,0) tid=(4,5,0)
GPGPU-Sim PTX: 11200000 instructions simulated : ctaid=(13,4,0) tid=(14,6,0)
GPGPU-Sim uArch: cycles simulated: 30500  inst.: 10931059 (ipc=358.4) sim_rate=420425 (inst/sec) elapsed = 0:0:00:26 / Mon Feb 29 20:26:50 2016
GPGPU-Sim PTX: 11300000 instructions simulated : ctaid=(5,6,0) tid=(0,2,0)
GPGPU-Sim PTX: 11400000 instructions simulated : ctaid=(14,5,0) tid=(2,1,0)
GPGPU-Sim PTX: 11500000 instructions simulated : ctaid=(15,6,0) tid=(1,3,0)
GPGPU-Sim PTX: 11600000 instructions simulated : ctaid=(13,5,0) tid=(14,7,0)
GPGPU-Sim PTX: 11700000 instructions simulated : ctaid=(11,0,0) tid=(11,1,0)
GPGPU-Sim uArch: cycles simulated: 31500  inst.: 11461413 (ipc=363.9) sim_rate=424496 (inst/sec) elapsed = 0:0:00:27 / Mon Feb 29 20:26:51 2016
GPGPU-Sim PTX: 11800000 instructions simulated : ctaid=(14,6,0) tid=(10,7,0)
GPGPU-Sim PTX: 11900000 instructions simulated : ctaid=(3,5,0) tid=(9,1,0)
GPGPU-Sim PTX: 12000000 instructions simulated : ctaid=(2,5,0) tid=(12,6,0)
GPGPU-Sim PTX: 12100000 instructions simulated : ctaid=(3,5,0) tid=(15,3,0)
GPGPU-Sim PTX: 12200000 instructions simulated : ctaid=(11,2,0) tid=(15,1,0)
GPGPU-Sim PTX: 12300000 instructions simulated : ctaid=(14,5,0) tid=(6,7,0)
GPGPU-Sim uArch: cycles simulated: 32500  inst.: 12069378 (ipc=371.4) sim_rate=431049 (inst/sec) elapsed = 0:0:00:28 / Mon Feb 29 20:26:52 2016
GPGPU-Sim PTX: 12400000 instructions simulated : ctaid=(9,2,0) tid=(10,0,0)
GPGPU-Sim PTX: 12500000 instructions simulated : ctaid=(13,5,0) tid=(2,4,0)
GPGPU-Sim uArch: Shader 14 finished CTA #2 (32702,0), 4 CTAs running
GPGPU-Sim uArch: core: 14, cta: 2 initialized @(32703,0)
GPGPU-Sim PTX: 12600000 instructions simulated : ctaid=(8,2,0) tid=(0,7,0)
GPGPU-Sim PTX: 12700000 instructions simulated : ctaid=(5,6,0) tid=(8,1,0)
GPGPU-Sim PTX: 12800000 instructions simulated : ctaid=(10,0,0) tid=(10,1,0)
GPGPU-Sim PTX: 12900000 instructions simulated : ctaid=(7,5,0) tid=(10,1,0)
GPGPU-Sim PTX: 13000000 instructions simulated : ctaid=(7,4,0) tid=(5,2,0)
GPGPU-Sim uArch: cycles simulated: 33500  inst.: 12670301 (ipc=378.2) sim_rate=436906 (inst/sec) elapsed = 0:0:00:29 / Mon Feb 29 20:26:53 2016
GPGPU-Sim uArch: Shader 7 finished CTA #2 (33503,0), 4 CTAs running
GPGPU-Sim uArch: core:  7, cta: 2 initialized @(33504,0)
GPGPU-Sim PTX: 13100000 instructions simulated : ctaid=(2,7,0) tid=(6,2,0)
GPGPU-Sim PTX: 13200000 instructions simulated : ctaid=(13,4,0) tid=(1,5,0)
GPGPU-Sim PTX: 13300000 instructions simulated : ctaid=(1,5,0) tid=(10,6,0)
GPGPU-Sim PTX: 13400000 instructions simulated : ctaid=(15,6,0) tid=(1,2,0)
GPGPU-Sim PTX: 13500000 instructions simulated : ctaid=(10,1,0) tid=(11,0,0)
GPGPU-Sim uArch: cycles simulated: 34500  inst.: 13194328 (ipc=382.4) sim_rate=439810 (inst/sec) elapsed = 0:0:00:30 / Mon Feb 29 20:26:54 2016
GPGPU-Sim PTX: 13600000 instructions simulated : ctaid=(11,6,0) tid=(8,5,0)
GPGPU-Sim PTX: 13700000 instructions simulated : ctaid=(8,4,0) tid=(5,1,0)
GPGPU-Sim PTX: 13800000 instructions simulated : ctaid=(12,5,0) tid=(11,4,0)
GPGPU-Sim PTX: 13900000 instructions simulated : ctaid=(5,5,0) tid=(12,4,0)
GPGPU-Sim PTX: 14000000 instructions simulated : ctaid=(11,5,0) tid=(3,0,0)
GPGPU-Sim PTX: 14100000 instructions simulated : ctaid=(6,6,0) tid=(7,0,0)
GPGPU-Sim uArch: cycles simulated: 35500  inst.: 13751819 (ipc=387.4) sim_rate=443607 (inst/sec) elapsed = 0:0:00:31 / Mon Feb 29 20:26:55 2016
GPGPU-Sim PTX: 14200000 instructions simulated : ctaid=(1,7,0) tid=(11,1,0)
GPGPU-Sim PTX: 14300000 instructions simulated : ctaid=(4,6,0) tid=(2,0,0)
GPGPU-Sim PTX: 14400000 instructions simulated : ctaid=(14,5,0) tid=(3,3,0)
GPGPU-Sim PTX: 14500000 instructions simulated : ctaid=(8,6,0) tid=(2,3,0)
GPGPU-Sim PTX: 14600000 instructions simulated : ctaid=(6,6,0) tid=(11,3,0)
GPGPU-Sim PTX: 14700000 instructions simulated : ctaid=(12,5,0) tid=(10,2,0)
GPGPU-Sim uArch: cycles simulated: 36500  inst.: 14365936 (ipc=393.6) sim_rate=448935 (inst/sec) elapsed = 0:0:00:32 / Mon Feb 29 20:26:56 2016
GPGPU-Sim PTX: 14800000 instructions simulated : ctaid=(5,6,0) tid=(5,3,0)
GPGPU-Sim PTX: 14900000 instructions simulated : ctaid=(3,5,0) tid=(0,7,0)
GPGPU-Sim PTX: 15000000 instructions simulated : ctaid=(0,6,0) tid=(15,6,0)
GPGPU-Sim uArch: cycles simulated: 37000  inst.: 14678722 (ipc=396.7) sim_rate=444809 (inst/sec) elapsed = 0:0:00:33 / Mon Feb 29 20:26:57 2016
GPGPU-Sim PTX: 15100000 instructions simulated : ctaid=(8,5,0) tid=(11,7,0)
GPGPU-Sim PTX: 15200000 instructions simulated : ctaid=(14,5,0) tid=(10,3,0)
GPGPU-Sim PTX: 15300000 instructions simulated : ctaid=(2,5,0) tid=(8,2,0)
GPGPU-Sim PTX: 15400000 instructions simulated : ctaid=(6,3,0) tid=(13,0,0)
GPGPU-Sim PTX: 15500000 instructions simulated : ctaid=(6,5,0) tid=(14,7,0)
GPGPU-Sim PTX: 15600000 instructions simulated : ctaid=(4,1,0) tid=(0,0,0)
GPGPU-Sim uArch: cycles simulated: 38000  inst.: 15240126 (ipc=401.1) sim_rate=448239 (inst/sec) elapsed = 0:0:00:34 / Mon Feb 29 20:26:58 2016
GPGPU-Sim PTX: 15700000 instructions simulated : ctaid=(7,5,0) tid=(3,7,0)
GPGPU-Sim uArch: Shader 14 finished CTA #3 (38099,0), 4 CTAs running
GPGPU-Sim uArch: core: 14, cta: 3 initialized @(38100,0)
GPGPU-Sim PTX: 15800000 instructions simulated : ctaid=(11,0,0) tid=(11,1,0)
GPGPU-Sim PTX: 15900000 instructions simulated : ctaid=(6,1,0) tid=(13,3,0)
GPGPU-Sim PTX: 16000000 instructions simulated : ctaid=(1,5,0) tid=(7,4,0)
GPGPU-Sim PTX: 16100000 instructions simulated : ctaid=(10,6,0) tid=(13,6,0)
GPGPU-Sim uArch: cycles simulated: 39000  inst.: 15678214 (ipc=402.0) sim_rate=447948 (inst/sec) elapsed = 0:0:00:35 / Mon Feb 29 20:26:59 2016
GPGPU-Sim PTX: 16200000 instructions simulated : ctaid=(10,5,0) tid=(10,3,0)
GPGPU-Sim uArch: Shader 13 finished CTA #2 (39288,0), 4 CTAs running
GPGPU-Sim uArch: core: 13, cta: 2 initialized @(39289,0)
GPGPU-Sim PTX: 16300000 instructions simulated : ctaid=(1,6,0) tid=(6,1,0)
GPGPU-Sim PTX: 16400000 instructions simulated : ctaid=(14,4,0) tid=(12,0,0)
GPGPU-Sim PTX: 16500000 instructions simulated : ctaid=(4,7,0) tid=(3,2,0)
GPGPU-Sim uArch: cycles simulated: 40000  inst.: 16138851 (ipc=403.5) sim_rate=448301 (inst/sec) elapsed = 0:0:00:36 / Mon Feb 29 20:27:00 2016
GPGPU-Sim PTX: 16600000 instructions simulated : ctaid=(9,5,0) tid=(14,5,0)
GPGPU-Sim PTX: 16700000 instructions simulated : ctaid=(5,6,0) tid=(11,0,0)
GPGPU-Sim PTX: 16800000 instructions simulated : ctaid=(3,0,0) tid=(11,1,0)
GPGPU-Sim PTX: 16900000 instructions simulated : ctaid=(14,5,0) tid=(1,4,0)
GPGPU-Sim PTX: 17000000 instructions simulated : ctaid=(8,3,0) tid=(11,5,0)
GPGPU-Sim uArch: cycles simulated: 41000  inst.: 16615140 (ipc=405.2) sim_rate=449057 (inst/sec) elapsed = 0:0:00:37 / Mon Feb 29 20:27:01 2016
GPGPU-Sim PTX: 17100000 instructions simulated : ctaid=(8,1,0) tid=(2,6,0)
GPGPU-Sim PTX: 17200000 instructions simulated : ctaid=(4,6,0) tid=(1,0,0)
GPGPU-Sim PTX: 17300000 instructions simulated : ctaid=(6,0,0) tid=(10,5,0)
GPGPU-Sim PTX: 17400000 instructions simulated : ctaid=(1,5,0) tid=(4,7,0)
GPGPU-Sim PTX: 17500000 instructions simulated : ctaid=(11,0,0) tid=(9,4,0)
GPGPU-Sim uArch: cycles simulated: 42000  inst.: 17129287 (ipc=407.8) sim_rate=450770 (inst/sec) elapsed = 0:0:00:38 / Mon Feb 29 20:27:02 2016
GPGPU-Sim PTX: 17600000 instructions simulated : ctaid=(7,4,0) tid=(7,6,0)
GPGPU-Sim PTX: 17700000 instructions simulated : ctaid=(7,3,0) tid=(7,4,0)
GPGPU-Sim uArch: Shader 5 finished CTA #3 (42272,0), 4 CTAs running
GPGPU-Sim uArch: core:  5, cta: 3 initialized @(42273,0)
GPGPU-Sim uArch: Shader 5 finished CTA #1 (42298,0), 4 CTAs running
GPGPU-Sim uArch: core:  5, cta: 1 initialized @(42299,0)
GPGPU-Sim uArch: Shader 5 finished CTA #4 (42370,0), 4 CTAs running
GPGPU-Sim uArch: core:  5, cta: 4 initialized @(42371,0)
GPGPU-Sim PTX: 17800000 instructions simulated : ctaid=(8,6,0) tid=(7,4,0)
GPGPU-Sim PTX: 17900000 instructions simulated : ctaid=(9,0,0) tid=(15,3,0)
GPGPU-Sim PTX: 18000000 instructions simulated : ctaid=(12,6,0) tid=(1,0,0)
GPGPU-Sim uArch: cycles simulated: 43000  inst.: 17532095 (ipc=407.7) sim_rate=449540 (inst/sec) elapsed = 0:0:00:39 / Mon Feb 29 20:27:03 2016
GPGPU-Sim PTX: 18100000 instructions simulated : ctaid=(3,7,0) tid=(7,7,0)
GPGPU-Sim PTX: 18200000 instructions simulated : ctaid=(11,6,0) tid=(3,2,0)
GPGPU-Sim uArch: Shader 14 finished CTA #1 (43428,0), 4 CTAs running
GPGPU-Sim uArch: core: 14, cta: 1 initialized @(43429,0)
GPGPU-Sim PTX: 18300000 instructions simulated : ctaid=(0,5,0) tid=(0,7,0)
GPGPU-Sim uArch: Shader 12 finished CTA #3 (43626,0), 4 CTAs running
GPGPU-Sim uArch: core: 12, cta: 3 initialized @(43627,0)
GPGPU-Sim uArch: Shader 4 finished CTA #1 (43641,0), 4 CTAs running
GPGPU-Sim uArch: core:  4, cta: 1 initialized @(43642,0)
GPGPU-Sim uArch: Shader 9 finished CTA #3 (43808,0), 4 CTAs running
GPGPU-Sim uArch: core:  9, cta: 3 initialized @(43809,0)
GPGPU-Sim PTX: 18400000 instructions simulated : ctaid=(5,6,0) tid=(7,5,0)
GPGPU-Sim uArch: Shader 4 finished CTA #4 (43909,0), 4 CTAs running
GPGPU-Sim uArch: core:  4, cta: 4 initialized @(43910,0)
GPGPU-Sim uArch: Shader 4 finished CTA #0 (43943,0), 4 CTAs running
GPGPU-Sim uArch: core:  4, cta: 0 initialized @(43944,0)
GPGPU-Sim uArch: cycles simulated: 44000  inst.: 17982379 (ipc=408.7) sim_rate=449559 (inst/sec) elapsed = 0:0:00:40 / Mon Feb 29 20:27:04 2016
GPGPU-Sim PTX: 18500000 instructions simulated : ctaid=(8,2,0) tid=(4,7,0)
GPGPU-Sim uArch: Shader 7 finished CTA #3 (44159,0), 4 CTAs running
GPGPU-Sim uArch: core:  7, cta: 3 initialized @(44160,0)
GPGPU-Sim uArch: Shader 4 finished CTA #2 (44179,0), 4 CTAs running
GPGPU-Sim uArch: core:  4, cta: 2 initialized @(44180,0)
GPGPU-Sim PTX: 18600000 instructions simulated : ctaid=(9,2,0) tid=(8,2,0)
GPGPU-Sim uArch: Shader 10 finished CTA #3 (44361,0), 4 CTAs running
GPGPU-Sim uArch: core: 10, cta: 3 initialized @(44362,0)
GPGPU-Sim uArch: Shader 7 finished CTA #4 (44408,0), 4 CTAs running
GPGPU-Sim uArch: core:  7, cta: 4 initialized @(44409,0)
GPGPU-Sim uArch: Shader 13 finished CTA #1 (44409,0), 4 CTAs running
GPGPU-Sim uArch: core: 13, cta: 1 initialized @(44410,0)
GPGPU-Sim uArch: Shader 10 finished CTA #4 (44413,0), 4 CTAs running
GPGPU-Sim uArch: core: 10, cta: 4 initialized @(44414,0)
GPGPU-Sim uArch: Shader 13 finished CTA #0 (44420,0), 4 CTAs running
GPGPU-Sim uArch: core: 13, cta: 0 initialized @(44421,0)
GPGPU-Sim PTX: 18700000 instructions simulated : ctaid=(4,6,0) tid=(1,0,0)
GPGPU-Sim uArch: Shader 13 finished CTA #3 (44643,0), 4 CTAs running
GPGPU-Sim uArch: core: 13, cta: 3 initialized @(44644,0)
GPGPU-Sim PTX: 18800000 instructions simulated : ctaid=(2,5,0) tid=(8,1,0)
GPGPU-Sim uArch: Shader 6 finished CTA #2 (44768,0), 4 CTAs running
GPGPU-Sim uArch: core:  6, cta: 2 initialized @(44769,0)
GPGPU-Sim uArch: Shader 6 finished CTA #3 (44861,0), 4 CTAs running
GPGPU-Sim uArch: core:  6, cta: 3 initialized @(44862,0)
GPGPU-Sim PTX: 18900000 instructions simulated : ctaid=(6,7,0) tid=(9,0,0)
[...]
traffic_breakdown_memtocore[LOCAL_ACC_W] = 356160 {8:44520,}
maxmrqlatency = 616 
maxdqlatency = 0 
maxmflatency = 1827 
averagemflatency = 262 
max_icnt2mem_latency = 1107 
max_icnt2sh_latency = 140048 
mrq_lat_table:13486 	1641 	1157 	2007 	4825 	3606 	3214 	2013 	257 	9 	0 	0 	0 	0 	0 	0 	0 	0 	0 	0 	0 	0 	0 	0 	0 	0 	0 	0 	0 	0 	0 	0 	
dq_lat_table:0 	0 	0 	0 	0 	0 	0 	0 	0 	0 	0 	0 	0 	0 	0 	0 	0 	0 	0 	0 	0 	0 	0 	0 	0 	0 	0 	0 	0 	0 	0 	0 	
mf_lat_table:0 	0 	0 	0 	0 	0 	0 	49177 	9496 	4627 	861 	0 	0 	0 	0 	0 	0 	0 	0 	0 	0 	0 	0 	0 	0 	0 	0 	0 	0 	0 	0 	0 	
icnt2mem_lat_table:0 	0 	0 	20783 	13179 	13662 	29587 	2423 	2356 	433 	4 	0 	0 	0 	0 	0 	0 	0 	0 	0 	0 	0 	0 	0 	
icnt2sh_lat_table:0 	0 	0 	5227 	4251 	1787 	184 	0 	0 	186 	497 	1395 	3086 	2636 	6114 	10897 	23080 	4821 	0 	0 	0 	0 	0 	0 	
mf_lat_pw_table:0 	0 	0 	0 	0 	0 	0 	232 	9 	16 	2 	0 	0 	0 	0 	0 	0 	0 	0 	0 	0 	0 	0 	0 	0 	0 	0 	0 	0 	0 	0 	0 	
maximum concurrent accesses to same row:
dram[0]:        54        56        36        34        26        24        35        24        28        20        25        18        17        24        20        36 
dram[1]:        52        54        34        32        20        22        33        38        26        16        18        12        17        27        16        21 
dram[2]:        62        62        54        56        30        28        26        34        27        25        20        21        15        22        22        20 
dram[3]:        58        60        54        56        24        28        36        40        31        22        21        16        23        21        25        18 
dram[4]:        62        64        56        52        32        28        36        22        24        21        18        16        19        27        20        20 
dram[5]:        58        60        56        48        26        30        31        40        26        26        28        20        16        22        19        18 
maximum service time to same row:
dram[0]:     27089     18032     16706     19685     22924     16472     17910     13747     18445     21750     40626     37096     37762     37025     26979     20065 
dram[1]:     18137     16952     16747     18991     16623     18755     14411     17860     19539     18395     35088     38013     45037     38589     21551     24672 
dram[2]:     15870     13477     17747     31319     16633     14775     13250     18136     18659     28593     30149     19896     30149     29418     35903     32620 
dram[3]:     17592     16230     32673     31206     32069     17254     17932     16727     24422     20669     28419     19822     29940     29304     35673     19225 
dram[4]:     17535     27562     25073     30119     17620     17079     16706     16480     18151     21564     49158     24899     28334     28327     22340     21946 
dram[5]:     23423     16366     19431     21684     15088     17142     19049     17760     17953     17984     38838     28882     28837     28066     20725     32345 
average row accesses per activate:
dram[0]:  5.962264  4.563380  5.750000  5.084746  4.430555  3.505618  4.032967  3.725490  3.885417  3.168000  4.025316  3.616162  3.717647  4.252873  3.581395  4.013333 
dram[1]:  4.375000  4.707692  4.967213  4.781818  3.259259  3.728395  3.031008  3.975000  3.311476  3.542857  3.370370  3.198113  3.318584  4.358974  3.862500  4.000000 
dram[2]:  5.692307  5.854546  7.275000  6.880952  3.773333  3.673469  3.319672  4.410256  4.262500  4.285714  4.075000  3.173077  3.831325  3.881721  6.947369  4.422535 
dram[3]:  6.170213  6.395833  5.207547  6.142857  4.317461  3.306306  3.729167  3.724490  4.197531  3.451327  4.012500  3.288461  4.050633  3.821053  5.791667  4.024692 
dram[4]:  6.035714  7.318182  7.025641  6.617021  3.862069  3.384615  4.121951  3.727273  3.622642  3.948980  4.075949  3.670213  5.044117  4.065217  4.246154  4.333333 
dram[5]:  5.619048  7.555555  6.150943  4.515625  3.469388  3.536083  3.162791  3.504951  3.672414  3.688073  3.258929  3.720930  3.708738  4.274725  4.130952  4.730159 
average row locality = 32215/7850 = 4.103822
number of total memory accesses made:
dram[0]:         0         0         0         0         0         0         0         0         0         0         0         0         0         0         0         0 
dram[1]:         0         0         0         0         0         0         0         0         0         0         0         0         0         0         0         0 
dram[2]:         0         0         0         0         0         0         0         0         0         0         0         0         0         0         0         0 
dram[3]:         0         0         0         0         0         0         0         0         0         0         0         0         0         0         0         0 
dram[4]:         0         0         0         0         0         0         0         0         0         0         0         0         0         0         0         0 
dram[5]:         0         0         0         0         0         0         0         0         0         0         0         0         0         0         0         0 
total accesses: 0
min_bank_accesses = 0!
min_chip_accesses = 0!
number of total read accesses:
dram[0]:       143       140       128       129       127       128       142       151       153       159       128       145       132       153       137       129 
dram[1]:       153       134       127       114       146       125       156       127       166       152       149       135       154       145       133       124 
dram[2]:       130       142       123       127       118       146       160       139       142       150       135       135       137       152       120       137 
dram[3]:       129       133       116       127       112       150       144       148       137       159       131       140       136       154       123       140 
dram[4]:       149       143       120       136       140       147       136       151       158       157       134       143       146       156       124       138 
dram[5]:       157       149       136       126       142       140       165       142       174       165       150       129       157       161       147       131 
total reads: 13485
bank skew: 174/112 = 1.55
chip skew: 2371/2179 = 1.09
number of total write accesses:
dram[0]:       173       184       171       171       192       184       225       229       220       237       190       213       184       217       171       172 
dram[1]:       197       172       176       149       206       177       235       191       238       220       215       204       221       195       176       160 
dram[2]:       166       180       168       162       165       214       245       205       199       210       191       195       181       209       144       177 
dram[3]:       161       174       160       174       160       217       214       217       203       231       190       202       184       209       155       186 
dram[4]:       189       179       154       175       196       205       202       218       226       230       188       202       197       218       152       174 
dram[5]:       197       191       190       163       198       203       243       212       252       237       215       191       225       228       200       167 
total reads: 18730
bank skew: 252/144 = 1.75
chip skew: 3312/3011 = 1.10
average mf latency per bank:
dram[0]:        548       447       560       523       560       548       609       540       537       499       606       552       607       516       526       525
dram[1]:        487       477       500       555       457       525       512       603       459       503       499       525       467       520       499       523
dram[2]:        538       506       582       612       650       509       514       646       586       536       589       566       594       537       633       495
dram[3]:        482       523       588       520       578       439       524       541       535       458       539       505       530       482       556       434
dram[4]:        470       463       624       542       537       529       632       578       509       512       575       568       556       509       584       543
dram[5]:        427       432       479       524       457       486       471       527       433       441       482       534       450       436       428       511
maximum mf latency per bank:
dram[0]:       1293      1002      1676      1197      1363      1246      1436      1223      1354      1238      1300      1170      1424      1291      1230      1128
dram[1]:        914      1006      1318      1232      1097      1194      1045      1048      1033       997      1067      1015       960       939       997      1089
dram[2]:       1316      1333      1735      1723      1548      1584      1584      1442      1432      1494      1290      1221      1328      1442      1382      1319
dram[3]:       1138      1370      1537      1697      1341      1619      1117      1455      1075      1072       991      1106      1029      1192      1153      1087
dram[4]:       1393      1510      1827      1821      1698      1698      1689      1761      1615      1426      1322      1302      1365      1197      1231      1358
dram[5]:       1374      1347      1776      1558      1604      1693      1447      1507      1206      1027      1112      1036      1117      1110      1102      1070

Number of Memory Banks Accessed per Memory Operation per Warp (from 0):
0	0	0	0	0	0	0	0	0	0	0	0	0	0	0	0	0	0	0	0	0	0	0	0	0	0	0	0	0	0	0	0	0	0	0	0	0	0	0	0	0	0	0	0	0	0	0	0	0	0	0	0	0	0	0	0	0	0	0	0	0	0	0	0	0	0	0	0	0	0	0	0	0	0	0	0	0	0	0	0	0	0	0	0	0	0	0	0	0	0	0	0	0	0	0	0	
Average # of Memory Banks Accessed per Memory Operation per Warp=-nan

position of mrq chosen
0	0	0	0	0	0	0	0	0	0	0	0	0	0	0	0	

average position of mrq chosen = -nan
Memory Partition 0: 
Cache L2_bank_000:
MSHR contents

Cache L2_bank_001:
MSHR contents

In Dram Latency Queue (total = 0): 
DRAM[0]: 16 bks, busW=4 BL=8 CL=12, tRRD=2 tCCD=6, tRCD=12 tRAS=28 tRP=12 tRC=40
n_cmd=184864 n_nop=171997 n_act=1321 n_pre=1305 n_req=5357 n_rd=4448 n_write=5793 bw_util=0.1108
n_activity=52544 dram_eff=0.3898
bk0: 286a 176679i bk1: 280a 176273i bk2: 256a 176092i bk3: 258a 175912i bk4: 254a 174150i bk5: 256a 174406i bk6: 284a 172747i bk7: 302a 172524i bk8: 306a 173836i bk9: 318a 173182i bk10: 256a 174918i bk11: 290a 173770i bk12: 264a 174450i bk13: 306a 173861i bk14: 274a 174956i bk15: 258a 175672i 
dram_util_bins: 0 0 0 0 0 0 0 0 0 0
dram_eff_bins: 0 0 0 0 0 0 0 0 0 0
mrqq: max=16 avg=1.26238
Memory Partition 1: 
Cache L2_bank_002:
MSHR contents

Cache L2_bank_003:
MSHR contents

In Dram Latency Queue (total = 0): 
DRAM[1]: 16 bks, busW=4 BL=8 CL=12, tRRD=2 tCCD=6, tRCD=12 tRAS=28 tRP=12 tRC=40
n_cmd=184864 n_nop=171711 n_act=1442 n_pre=1426 n_req=5372 n_rd=4480 n_write=5805 bw_util=0.1113
n_activity=53571 dram_eff=0.384
bk0: 306a 175456i bk1: 268a 176621i bk2: 254a 175635i bk3: 228a 176598i bk4: 292a 173559i bk5: 250a 174306i bk6: 312a 172002i bk7: 254a 173913i bk8: 332a 173135i bk9: 304a 173692i bk10: 298a 173461i bk11: 270a 174163i bk12: 308a 173398i bk13: 290a 174364i bk14: 266a 175317i bk15: 248a 175761i 
dram_util_bins: 0 0 0 0 0 0 0 0 0 0
dram_eff_bins: 0 0 0 0 0 0 0 0 0 0
mrqq: max=16 avg=1.1666
Memory Partition 2: 
Cache L2_bank_004:
MSHR contents

Cache L2_bank_005:
MSHR contents

In Dram Latency Queue (total = 0): 
DRAM[2]: 16 bks, busW=4 BL=8 CL=12, tRRD=2 tCCD=6, tRCD=12 tRAS=28 tRP=12 tRC=40
n_cmd=184864 n_nop=172543 n_act=1195 n_pre=1179 n_req=5204 n_rd=4386 n_write=5561 bw_util=0.1076
n_activity=52247 dram_eff=0.3808
bk0: 260a 177077i bk1: 284a 176936i bk2: 246a 176877i bk3: 254a 177015i bk4: 236a 175713i bk5: 292a 173404i bk6: 320a 171848i bk7: 278a 173533i bk8: 284a 175488i bk9: 300a 174466i bk10: 270a 174413i bk11: 270a 174513i bk12: 274a 174370i bk13: 304a 173585i bk14: 240a 176491i bk15: 274a 175564i 
dram_util_bins: 0 0 0 0 0 0 0 0 0 0
dram_eff_bins: 0 0 0 0 0 0 0 0 0 0
mrqq: max=16 avg=1.28086
Memory Partition 3: 
Cache L2_bank_006:
MSHR contents

Cache L2_bank_007:
MSHR contents

In Dram Latency Queue (total = 0): 
DRAM[3]: 16 bks, busW=4 BL=8 CL=12, tRRD=2 tCCD=6, tRCD=12 tRAS=28 tRP=12 tRC=40
n_cmd=184864 n_nop=172414 n_act=1246 n_pre=1230 n_req=5216 n_rd=4358 n_write=5616 bw_util=0.1079
n_activity=52299 dram_eff=0.3814
bk0: 258a 177480i bk1: 266a 177011i bk2: 232a 177090i bk3: 254a 176937i bk4: 224a 175807i bk5: 300a 173758i bk6: 288a 173846i bk7: 296a 173231i bk8: 274a 175222i bk9: 318a 173720i bk10: 262a 175170i bk11: 280a 174474i bk12: 272a 175171i bk13: 308a 173887i bk14: 246a 176174i bk15: 280a 175225i 
dram_util_bins: 0 0 0 0 0 0 0 0 0 0
dram_eff_bins: 0 0 0 0 0 0 0 0 0 0
mrqq: max=16 avg=1.10384
Memory Partition 4: 
Cache L2_bank_008:
MSHR contents

Cache L2_bank_009:
MSHR contents

In Dram Latency Queue (total = 0): 
DRAM[4]: 16 bks, busW=4 BL=8 CL=12, tRRD=2 tCCD=6, tRCD=12 tRAS=28 tRP=12 tRC=40
n_cmd=184864 n_nop=172110 n_act=1232 n_pre=1216 n_req=5383 n_rd=4556 n_write=5750 bw_util=0.1115
n_activity=52444 dram_eff=0.393
bk0: 298a 176670i bk1: 286a 176908i bk2: 240a 176572i bk3: 272a 176240i bk4: 280a 174217i bk5: 294a 173206i bk6: 272a 173326i bk7: 302a 172368i bk8: 316a 173259i bk9: 314a 173581i bk10: 268a 175033i bk11: 286a 174003i bk12: 292a 174031i bk13: 312a 173740i bk14: 248a 176092i bk15: 276a 175341i 
dram_util_bins: 0 0 0 0 0 0 0 0 0 0
dram_eff_bins: 0 0 0 0 0 0 0 0 0 0
mrqq: max=16 avg=1.27953
Memory Partition 5: 
Cache L2_bank_010:
MSHR contents

Cache L2_bank_011:
MSHR contents

In Dram Latency Queue (total = 0): 
DRAM[5]: 16 bks, busW=4 BL=8 CL=12, tRRD=2 tCCD=6, tRCD=12 tRAS=28 tRP=12 tRC=40
n_cmd=184864 n_nop=171155 n_act=1414 n_pre=1398 n_req=5683 n_rd=4742 n_write=6155 bw_util=0.1179
n_activity=57477 dram_eff=0.3792
bk0: 314a 176335i bk1: 298a 176627i bk2: 272a 175755i bk3: 252a 176501i bk4: 284a 174600i bk5: 280a 173483i bk6: 330a 172025i bk7: 284a 173394i bk8: 348a 173269i bk9: 330a 173623i bk10: 300a 174007i bk11: 258a 174917i bk12: 314a 173612i bk13: 322a 172936i bk14: 294a 174596i bk15: 262a 176414i 
dram_util_bins: 0 0 0 0 0 0 0 0 0 0
dram_eff_bins: 0 0 0 0 0 0 0 0 0 0
mrqq: max=16 avg=1.14511

========= L2 cache stats =========
L2_cache_bank[0]: Access = 6831, Miss = 1090, Miss_rate = 0.160, Pending_hits = 88, Reservation_fails = 1121
L2_cache_bank[1]: Access = 6990, Miss = 1134, Miss_rate = 0.162, Pending_hits = 92, Reservation_fails = 633
L2_cache_bank[2]: Access = 6816, Miss = 1184, Miss_rate = 0.174, Pending_hits = 92, Reservation_fails = 604
L2_cache_bank[3]: Access = 6824, Miss = 1056, Miss_rate = 0.155, Pending_hits = 78, Reservation_fails = 387
L2_cache_bank[4]: Access = 6671, Miss = 1065, Miss_rate = 0.160, Pending_hits = 86, Reservation_fails = 589
L2_cache_bank[5]: Access = 6884, Miss = 1128, Miss_rate = 0.164, Pending_hits = 75, Reservation_fails = 372
L2_cache_bank[6]: Access = 6861, Miss = 1028, Miss_rate = 0.150, Pending_hits = 65, Reservation_fails = 519
L2_cache_bank[7]: Access = 6969, Miss = 1151, Miss_rate = 0.165, Pending_hits = 79, Reservation_fails = 419
L2_cache_bank[8]: Access = 7010, Miss = 1107, Miss_rate = 0.158, Pending_hits = 73, Reservation_fails = 788
L2_cache_bank[9]: Access = 6780, Miss = 1171, Miss_rate = 0.173, Pending_hits = 82, Reservation_fails = 390
L2_cache_bank[10]: Access = 6972, Miss = 1228, Miss_rate = 0.176, Pending_hits = 81, Reservation_fails = 591
L2_cache_bank[11]: Access = 6819, Miss = 1143, Miss_rate = 0.168, Pending_hits = 79, Reservation_fails = 472
L2_total_cache_accesses = 82427
L2_total_cache_misses = 13485
L2_total_cache_miss_rate = 0.1636
L2_total_cache_pending_hits = 970
L2_total_cache_reservation_fails = 6885
L2_total_cache_breakdown:
	L2_cache_stats_breakdown[GLOBAL_ACC_R][HIT] = 3751
	L2_cache_stats_breakdown[GLOBAL_ACC_R][HIT_RESERVED] = 13
	L2_cache_stats_breakdown[GLOBAL_ACC_R][MISS] = 159
	L2_cache_stats_breakdown[GLOBAL_ACC_R][RESERVATION_FAIL] = 7
	L2_cache_stats_breakdown[LOCAL_ACC_R][HIT] = 6933
	L2_cache_stats_breakdown[LOCAL_ACC_R][HIT_RESERVED] = 131
	L2_cache_stats_breakdown[LOCAL_ACC_R][MISS] = 432
	L2_cache_stats_breakdown[CONST_ACC_R][HIT] = 22
	L2_cache_stats_breakdown[CONST_ACC_R][HIT_RESERVED] = 6
	L2_cache_stats_breakdown[CONST_ACC_R][MISS] = 2
	L2_cache_stats_breakdown[CONST_ACC_R][RESERVATION_FAIL] = 353
	L2_cache_stats_breakdown[GLOBAL_ACC_W][HIT] = 5501
	L2_cache_stats_breakdown[GLOBAL_ACC_W][HIT_RESERVED] = 643
	L2_cache_stats_breakdown[GLOBAL_ACC_W][MISS] = 2048
	L2_cache_stats_breakdown[GLOBAL_ACC_W][RESERVATION_FAIL] = 95
	L2_cache_stats_breakdown[LOCAL_ACC_W][HIT] = 34994
	L2_cache_stats_breakdown[LOCAL_ACC_W][HIT_RESERVED] = 21
	L2_cache_stats_breakdown[LOCAL_ACC_W][MISS] = 9505
	L2_cache_stats_breakdown[LOCAL_ACC_W][RESERVATION_FAIL] = 543
	L2_cache_stats_breakdown[L1_WRBK_ACC][HIT] = 3851
	L2_cache_stats_breakdown[L1_WRBK_ACC][MISS] = 1286
	L2_cache_stats_breakdown[INST_ACC_R][HIT] = 12920
	L2_cache_stats_breakdown[INST_ACC_R][HIT_RESERVED] = 156
	L2_cache_stats_breakdown[INST_ACC_R][MISS] = 53
	L2_cache_stats_breakdown[INST_ACC_R][RESERVATION_FAIL] = 5887
L2_cache_data_port_util = 0.155
L2_cache_fill_port_util = 0.032

icnt_total_pkts_mem_to_simt=175542
icnt_total_pkts_simt_to_mem=294229
LD_mem_lat_dist  0 0 0 0 0 0 0 0 0 0 0 0 0 0 0 0 0 0 0 0 0 0 0 0 0 0 0
ST_mem_lat_dist  0 0 0 0 0 0 0 0 0 0 0 0 0 0 0 0 0 0 0 0 0 0 0 0 0 0 0
----------------------------Interconnect-DETAILS--------------------------------
Class 0:
Packet latency average = 17.3828
	minimum = 6
	maximum = 630
Network latency average = 13.618
	minimum = 6
	maximum = 582
Slowest packet = 1359
Flit latency average = 12.675
	minimum = 6
	maximum = 578
Slowest flit = 5056
Fragmentation average = 0.107152
	minimum = 0
	maximum = 553
Injected packet rate average = 0.0422384
	minimum = 0.0366872 (at node 2)
	maximum = 0.0469978 (at node 16)
Accepted packet rate average = 0.0422384
	minimum = 0.0345593 (at node 2)
	maximum = 0.0500539 (at node 23)
Injected flit rate average = 0.124235
	minimum = 0.0981014 (at node 19)
	maximum = 0.155724 (at node 10)
Accepted flit rate average= 0.124235
	minimum = 0.0741241 (at node 0)
	maximum = 0.177609 (at node 16)
Injected packet length average = 2.94127
Accepted packet length average = 2.94127
Total in-flight flits = 0 (0 measured)
====== Overall Traffic Statistics ======
====== Traffic class 0 ======
Packet latency average = 17.3828 (1 samples)
	minimum = 6 (1 samples)
	maximum = 630 (1 samples)
Network latency average = 13.618 (1 samples)
	minimum = 6 (1 samples)
	maximum = 582 (1 samples)
Flit latency average = 12.675 (1 samples)
	minimum = 6 (1 samples)
	maximum = 578 (1 samples)
Fragmentation average = 0.107152 (1 samples)
	minimum = 0 (1 samples)
	maximum = 553 (1 samples)
Injected packet rate average = 0.0422384 (1 samples)
	minimum = 0.0366872 (1 samples)
	maximum = 0.0469978 (1 samples)
Accepted packet rate average = 0.0422384 (1 samples)
	minimum = 0.0345593 (1 samples)
	maximum = 0.0500539 (1 samples)
Injected flit rate average = 0.124235 (1 samples)
	minimum = 0.0981014 (1 samples)
	maximum = 0.155724 (1 samples)
Accepted flit rate average = 0.124235 (1 samples)
	minimum = 0.0741241 (1 samples)
	maximum = 0.177609 (1 samples)
Injected packet size average = 2.94127 (1 samples)
Accepted packet size average = 2.94127 (1 samples)
Hops average = 1 (1 samples)
----------------------------END-of-Interconnect-DETAILS-------------------------


gpgpu_simulation_time = 0 days, 0 hrs, 2 min, 22 sec (142 sec)
gpgpu_simulation_rate = 441426 (inst/sec)
gpgpu_simulation_rate = 986 (cycle/sec)
GPGPU-Sim: synchronize waiting for inactive GPU simulation
GPGPU-Sim API: Stream Manager State
GPGPU-Sim: detected inactive GPU simulation thread

checksum=75ef40cb5b8e
Kernel Time: 140363.078125 
