

        *** GPGPU-Sim Simulator Version 3.2.2  [build 0] ***


GPGPU-Sim PTX: simulation mode 0 (can change with PTX_SIM_MODE_FUNC environment variable:
               1=functional simulation only, 0=detailed performance simulator)
GPGPU-Sim: Configuration options:

-network_mode                           1 # Interconnection network mode
-inter_config_file   config_fermi_islip.icnt # Interconnection network config file
-gpgpu_ptx_use_cuobjdump                    1 # Use cuobjdump to extract ptx and sass from binaries
-gpgpu_experimental_lib_support                    0 # Try to extract code from cuda libraries [Broken because of unknown cudaGetExportTable]
-gpgpu_ptx_convert_to_ptxplus                    0 # Convert SASS (native ISA) to ptxplus and run ptxplus
-gpgpu_ptx_force_max_capability                   20 # Force maximum compute capability
-gpgpu_ptx_inst_debug_to_file                    0 # Dump executed instructions' debug information to file
-gpgpu_ptx_inst_debug_file       inst_debug.txt # Executed instructions' debug output file
-gpgpu_ptx_inst_debug_thread_uid                    1 # Thread UID for executed instructions' debug output
-gpgpu_simd_model                       1 # 1 = post-dominator
-gpgpu_shader_core_pipeline              1536:32 # shader core pipeline config, i.e., {<nthread>:<warpsize>}
-gpgpu_tex_cache:l1  4:128:24,L:R:m:N:L,F:128:4,128:2 # per-shader L1 texture cache  (READ-ONLY) config  {<nsets>:<bsize>:<assoc>,<rep>:<wr>:<alloc>:<wr_alloc>,<mshr>:<N>:<merge>,<mq>:<rf>}
-gpgpu_const_cache:l1 64:64:2,L:R:f:N:L,A:2:32,4 # per-shader L1 constant memory cache  (READ-ONLY) config  {<nsets>:<bsize>:<assoc>,<rep>:<wr>:<alloc>:<wr_alloc>,<mshr>:<N>:<merge>,<mq>} 
-gpgpu_cache:il1     4:128:4,L:R:f:N:L,A:2:32,4 # shader L1 instruction cache config  {<nsets>:<bsize>:<assoc>,<rep>:<wr>:<alloc>:<wr_alloc>,<mshr>:<N>:<merge>,<mq>} 
-gpgpu_cache:dl1     32:128:4,L:L:m:N:H,A:32:8,8 # per-shader L1 data cache config  {<nsets>:<bsize>:<assoc>,<rep>:<wr>:<alloc>:<wr_alloc>,<mshr>:<N>:<merge>,<mq> | none}
-gpgpu_cache:dl1PrefL1                 none # per-shader L1 data cache config  {<nsets>:<bsize>:<assoc>,<rep>:<wr>:<alloc>:<wr_alloc>,<mshr>:<N>:<merge>,<mq> | none}
-gpgpu_cache:dl1PreShared                 none # per-shader L1 data cache config  {<nsets>:<bsize>:<assoc>,<rep>:<wr>:<alloc>:<wr_alloc>,<mshr>:<N>:<merge>,<mq> | none}
-gmem_skip_L1D                          0 # global memory access skip L1D cache (implements -Xptxas -dlcm=cg, default=no skip)
-gpgpu_perfect_mem                      0 # enable perfect memory mode (no cache miss)
-n_regfile_gating_group                    4 # group of lanes that should be read/written together)
-gpgpu_clock_gated_reg_file                    0 # enable clock gated reg file for power calculations
-gpgpu_clock_gated_lanes                    0 # enable clock gated lanes for power calculations
-gpgpu_shader_registers                32768 # Number of registers per shader core. Limits number of concurrent CTAs. (default 8192)
-gpgpu_shader_cta                       8 # Maximum number of concurrent CTAs in shader (default 8)
-gpgpu_num_cta_barriers                   16 # Maximum number of named barriers per CTA (default 16)
-gpgpu_n_clusters                      15 # number of processing clusters
-gpgpu_n_cores_per_cluster                    1 # number of simd cores per cluster
-gpgpu_n_cluster_ejection_buffer_size                    8 # number of packets in ejection buffer
-gpgpu_n_ldst_response_buffer_size                    2 # number of response packets in ld/st unit ejection buffer
-gpgpu_shmem_size                   16384 # Size of shared memory per shader core (default 16kB)
-gpgpu_shmem_size                   49152 # Size of shared memory per shader core (default 16kB)
-gpgpu_shmem_size_PrefL1                16384 # Size of shared memory per shader core (default 16kB)
-gpgpu_shmem_size_PrefShared                16384 # Size of shared memory per shader core (default 16kB)
-gpgpu_shmem_num_banks                   32 # Number of banks in the shared memory in each shader core (default 16)
-gpgpu_shmem_limited_broadcast                    0 # Limit shared memory to do one broadcast per cycle (default on)
-gpgpu_shmem_warp_parts                    1 # Number of portions a warp is divided into for shared memory bank conflict check 
-gpgpu_warpdistro_shader                   -1 # Specify which shader core to collect the warp size distribution from
-gpgpu_warp_issue_shader                    0 # Specify which shader core to collect the warp issue distribution from
-gpgpu_local_mem_map                    1 # Mapping from local memory space address to simulated GPU physical address space (default = enabled)
-gpgpu_num_reg_banks                   16 # Number of register banks (default = 8)
-gpgpu_reg_bank_use_warp_id                    0 # Use warp ID in mapping registers to banks (default = off)
-gpgpu_operand_collector_num_units_sp                    6 # number of collector units (default = 4)
-gpgpu_operand_collector_num_units_sfu                    8 # number of collector units (default = 4)
-gpgpu_operand_collector_num_units_mem                    2 # number of collector units (default = 2)
-gpgpu_operand_collector_num_units_gen                    0 # number of collector units (default = 0)
-gpgpu_operand_collector_num_in_ports_sp                    2 # number of collector unit in ports (default = 1)
-gpgpu_operand_collector_num_in_ports_sfu                    1 # number of collector unit in ports (default = 1)
-gpgpu_operand_collector_num_in_ports_mem                    1 # number of collector unit in ports (default = 1)
-gpgpu_operand_collector_num_in_ports_gen                    0 # number of collector unit in ports (default = 0)
-gpgpu_operand_collector_num_out_ports_sp                    2 # number of collector unit in ports (default = 1)
-gpgpu_operand_collector_num_out_ports_sfu                    1 # number of collector unit in ports (default = 1)
-gpgpu_operand_collector_num_out_ports_mem                    1 # number of collector unit in ports (default = 1)
-gpgpu_operand_collector_num_out_ports_gen                    0 # number of collector unit in ports (default = 0)
-gpgpu_coalesce_arch                   13 # Coalescing arch (default = 13, anything else is off for now)
-gpgpu_num_sched_per_core                    2 # Number of warp schedulers per core
-gpgpu_max_insn_issue_per_warp                    1 # Max number of instructions that can be issued per warp in one cycle by scheduler
-gpgpu_simt_core_sim_order                    1 # Select the simulation order of cores in a cluster (0=Fix, 1=Round-Robin)
-gpgpu_pipeline_widths        2,1,1,2,1,1,2 # Pipeline widths ID_OC_SP,ID_OC_SFU,ID_OC_MEM,OC_EX_SP,OC_EX_SFU,OC_EX_MEM,EX_WB
-gpgpu_num_sp_units                     2 # Number of SP units (default=1)
-gpgpu_num_sfu_units                    1 # Number of SF units (default=1)
-gpgpu_num_mem_units                    1 # Number if ldst units (default=1) WARNING: not hooked up to anything
-gpgpu_scheduler                      gto # Scheduler configuration: < lrr | gto | two_level_active > If two_level_active:<num_active_warps>:<inner_prioritization>:<outer_prioritization>For complete list of prioritization values see shader.h enum scheduler_prioritization_typeDefault: gto
-gpgpu_dram_scheduler                    1 # 0 = fifo, 1 = FR-FCFS (defaul)
-gpgpu_dram_partition_queues              8:8:8:8 # i2$:$2d:d2$:$2i
-l2_ideal                               0 # Use a ideal L2 cache that always hit
-gpgpu_cache:dl2     64:128:4,L:B:m:W:L,A:32:4,4:0,32 # unified banked L2 data cache config  {<nsets>:<bsize>:<assoc>,<rep>:<wr>:<alloc>:<wr_alloc>,<mshr>:<N>:<merge>,<mq>}
-gpgpu_cache:dl2_texture_only                    0 # L2 cache used for texture only
-gpgpu_n_mem                            6 # number of memory modules (e.g. memory controllers) in gpu
-gpgpu_n_sub_partition_per_mchannel                    2 # number of memory subpartition in each memory module
-gpgpu_n_mem_per_ctrlr                    2 # number of memory chips per memory controller
-gpgpu_memlatency_stat                   14 # track and display latency statistics 0x2 enables MC, 0x4 enables queue logs
-gpgpu_frfcfs_dram_sched_queue_size                   16 # 0 = unlimited (default); # entries per chip
-gpgpu_dram_return_queue_size                  116 # 0 = unlimited (default); # entries per chip
-gpgpu_dram_buswidth                    4 # default = 4 bytes (8 bytes per cycle at DDR)
-gpgpu_dram_burst_length                    8 # Burst length of each DRAM request (default = 4 data bus cycle)
-dram_data_command_freq_ratio                    4 # Frequency ratio between DRAM data bus and command bus (default = 2 times, i.e. DDR)
-gpgpu_dram_timing_opt nbk=16:CCD=2:RRD=6:RCD=12:RAS=28:RP=12:RC=40: CL=12:WL=4:CDLR=5:WR=12:nbkgrp=4:CCDL=3:RTPL=2 # DRAM timing parameters = {nbk:tCCD:tRRD:tRCD:tRAS:tRP:tRC:CL:WL:tCDLR:tWR:nbkgrp:tCCDL:tRTPL}
-rop_latency                          120 # ROP queue latency (default 85)
-dram_latency                         100 # DRAM latency (default 30)
-gpgpu_mem_addr_mapping dramid@8;00000000.00000000.00000000.00000000.0000RRRR.RRRRRRRR.BBBCCCCB.CCSSSSSS # mapping memory address to dram model {dramid@<start bit>;<memory address map>}
-gpgpu_mem_addr_test                    0 # run sweep test to check address mapping for aliased address
-gpgpu_mem_address_mask                    1 # 0 = old addressing mask, 1 = new addressing mask, 2 = new add. mask + flipped bank sel and chip sel bits
-gpuwattch_xml_file  gpuwattch_gtx480.xml # GPUWattch XML file
-power_simulation_enabled                    0 # Turn on power simulator (1=On, 0=Off)
-power_per_cycle_dump                    0 # Dump detailed power output each cycle
-power_trace_enabled                    0 # produce a file for the power trace (1=On, 0=Off)
-power_trace_zlevel                     6 # Compression level of the power trace output log (0=no comp, 9=highest)
-steady_power_levels_enabled                    0 # produce a file for the steady power levels (1=On, 0=Off)
-steady_state_definition                  8:4 # allowed deviation:number of samples
-gpgpu_max_cycle                        0 # terminates gpu simulation early (0 = no limit)
-gpgpu_max_insn                         0 # terminates gpu simulation early (0 = no limit)
-gpgpu_max_cta                          0 # terminates gpu simulation early (0 = no limit)
-gpgpu_runtime_stat                   500 # display runtime statistics such as dram utilization {<freq>:<flag>}
-liveness_message_freq                    1 # Minimum number of seconds between simulation liveness messages (0 = always print)
-gpgpu_flush_l1_cache                    0 # Flush L1 cache at the end of each kernel call
-gpgpu_flush_l2_cache                    0 # Flush L2 cache at the end of each kernel call
-gpgpu_deadlock_detect                    1 # Stop the simulation at deadlock (1=on (default), 0=off)
-gpgpu_ptx_instruction_classification                    0 # if enabled will classify ptx instruction types per kernel (Max 255 kernels now)
-gpgpu_ptx_sim_mode                     0 # Select between Performance (default) or Functional simulation (1)
-gpgpu_clock_domains 700.0:700.0:700.0:924.0 # Clock Domain Frequencies in MhZ {<Core Clock>:<ICNT Clock>:<L2 Clock>:<DRAM Clock>}
-gpgpu_max_concurrent_kernel                    8 # maximum kernels that can run concurrently on GPU
-gpgpu_cflog_interval                    0 # Interval between each snapshot in control flow logger
-visualizer_enabled                     0 # Turn on visualizer output (1=On, 0=Off)
-visualizer_outputfile                 NULL # Specifies the output log file for visualizer
-visualizer_zlevel                      6 # Compression level of the visualizer output log (0=no comp, 9=highest)
-trace_enabled                          0 # Turn on traces
-trace_components                    none # comma seperated list of traces to enable. Complete list found in trace_streams.tup. Default none
-trace_sampling_core                    0 # The core which is printed using CORE_DPRINTF. Default 0
-trace_sampling_memory_partition                   -1 # The memory partition which is printed using MEMPART_DPRINTF. Default -1 (i.e. all)
-enable_ptx_file_line_stats                    1 # Turn on PTX source line statistic profiling. (1 = On)
-ptx_line_stats_filename gpgpu_inst_stats.txt # Output file for PTX source line statistics.
-save_embedded_ptx                      0 # saves ptx files embedded in binary as <n>.ptx
-keep                                   0 # keep intermediate files created by GPGPU-Sim when interfacing with external programs
-gpgpu_ptx_save_converted_ptxplus                    0 # Saved converted ptxplus to a file
-ptx_opcode_latency_int         4,13,4,5,145 # Opcode latencies for integers <ADD,MAX,MUL,MAD,DIV>Default 1,1,19,25,145
-ptx_opcode_latency_fp          4,13,4,5,39 # Opcode latencies for single precision floating points <ADD,MAX,MUL,MAD,DIV>Default 1,1,1,1,30
-ptx_opcode_latency_dp         8,19,8,8,330 # Opcode latencies for double precision floating points <ADD,MAX,MUL,MAD,DIV>Default 8,8,8,8,335
-ptx_opcode_initiation_int            1,2,2,1,8 # Opcode initiation intervals for integers <ADD,MAX,MUL,MAD,DIV>Default 1,1,4,4,32
-ptx_opcode_initiation_fp            1,2,1,1,4 # Opcode initiation intervals for single precision floating points <ADD,MAX,MUL,MAD,DIV>Default 1,1,1,1,5
-ptx_opcode_initiation_dp         8,16,8,8,130 # Opcode initiation intervals for double precision floating points <ADD,MAX,MUL,MAD,DIV>Default 8,8,8,8,130
DRAM Timing Options:
nbk                                    16 # number of banks
CCD                                     2 # column to column delay
RRD                                     6 # minimal delay between activation of rows in different banks
RCD                                    12 # row to column delay
RAS                                    28 # time needed to activate row
RP                                     12 # time needed to precharge (deactivate) row
RC                                     40 # row cycle time
CDLR                                    5 # switching from write to read (changes tWTR)
WR                                     12 # last data-in to row precharge
CL                                     12 # CAS latency
WL                                      4 # Write latency
nbkgrp                                  4 # number of bank groups
CCDL                                    3 # column to column delay between accesses to different bank groups
RTPL                                    2 # read to precharge delay between accesses to different bank groups
Total number of memory sub partition = 12
addr_dec_mask[CHIP]  = 0000000000000000 	high:64 low:0
addr_dec_mask[BK]    = 000000000000e100 	high:16 low:8
addr_dec_mask[ROW]   = 000000000fff0000 	high:28 low:16
addr_dec_mask[COL]   = 0000000000001eff 	high:13 low:0
addr_dec_mask[BURST] = 000000000000003f 	high:6 low:0
sub_partition_id_mask = 0000000000000100
GPGPU-Sim uArch: clock freqs: 700000000.000000:700000000.000000:700000000.000000:924000000.000000
GPGPU-Sim uArch: clock periods: 0.00000000142857142857:0.00000000142857142857:0.00000000142857142857:0.00000000108225108225
*** Initializing Memory Statistics ***
GPGPU-Sim uArch: interconnect node map (shaderID+MemID to icntID)
GPGPU-Sim uArch: Memory nodes ID start from index: 15
GPGPU-Sim uArch:    0   1   2   3   4
GPGPU-Sim uArch:    5   6   7   8   9
GPGPU-Sim uArch:   10  11  12  13  14
GPGPU-Sim uArch:   15  16  17  18  19
GPGPU-Sim uArch:   20  21  22  23  24
GPGPU-Sim uArch:   25  26
GPGPU-Sim uArch: interconnect node reverse map (icntID to shaderID+MemID)
GPGPU-Sim uArch: Memory nodes start from ID: 15
GPGPU-Sim uArch:    0   1   2   3   4
GPGPU-Sim uArch:    5   6   7   8   9
GPGPU-Sim uArch:   10  11  12  13  14
GPGPU-Sim uArch:   15  16  17  18  19
GPGPU-Sim uArch:   20  21  22  23  24
GPGPU-Sim uArch:   25  26
316bcbff5f8f022bb22b20bb4721e93e  /sciclone/data20/adwait/applications/benchmarks/CUDA/RAY/gpgpu_ptx_sim__RAY
GPGPU-Sim uArch: performance model initialization complete.
GPGPU-Sim PTX: __cudaRegisterFatBinary, fat_cubin_handle = 1, filename=rayTracing.cu
self exe links to: /sciclone/data20/adwait/applications/benchmarks/CUDA/RAY/gpgpu_ptx_sim__RAY
Running md5sum using "md5sum /sciclone/data20/adwait/applications/benchmarks/CUDA/RAY/gpgpu_ptx_sim__RAY "
Parsing file _cuobjdump_complete_output_ybI1Rk
######### cuobjdump parser ########
## Adding new section ELF
Adding arch: sm_20
Adding identifier: rayTracing.cu
## Adding new section PTX
Adding ptx filename: _cuobjdump_1.ptx
Adding arch: sm_20
Adding identifier: rayTracing.cu
Done parsing!!!
GPGPU-Sim PTX: __cudaRegisterFunction _Z6renderPjP4Nodejjff : hostFun 0x0x40ce13, fat_cubin_handle = 1
GPGPU-Sim PTX: allocating stack frame region for .param "__cudaretf__Zmi6float3S_" from 0x0 to 0xc
GPGPU-Sim PTX: allocating stack frame region for .param "__cudaparmf1__Zmi6float3S_" from 0xc to 0x18
GPGPU-Sim PTX: allocating stack frame region for .param "__cudaparmf2__Zmi6float3S_" from 0x18 to 0x24
GPGPU-Sim PTX: allocating stack frame region for .param "__cudaretf__Z9normalize6float3" from 0x0 to 0xc
GPGPU-Sim PTX: allocating stack frame region for .param "__cudaparmf1__Z9normalize6float3" from 0xc to 0x18
GPGPU-Sim PTX: allocating stack frame region for .param "__cudaretf__Z18intersectionSphere5Rayon6float3f" from 0x0 to 0x4
GPGPU-Sim PTX: allocating stack frame region for .param "__cudaparmf1__Z18intersectionSphere5Rayon6float3f" from 0x4 to 0x1c
GPGPU-Sim PTX: allocating stack frame region for .param "__cudaparmf2__Z18intersectionSphere5Rayon6float3f" from 0x1c to 0x28
GPGPU-Sim PTX: allocating stack frame region for .param "__cudaparmf3__Z18intersectionSphere5Rayon6float3f" from 0x28 to 0x2c
GPGPU-Sim PTX: allocating stack frame region for .param "__cudaretf__Z16intersectionPlan5Rayon6float3S0_" from 0x0 to 0x4
GPGPU-Sim PTX: allocating stack frame region for .param "__cudaparmf1__Z16intersectionPlan5Rayon6float3S0_" from 0x4 to 0x1c
GPGPU-Sim PTX: allocating stack frame region for .param "__cudaparmf2__Z16intersectionPlan5Rayon6float3S0_" from 0x1c to 0x28
GPGPU-Sim PTX: allocating stack frame region for .param "__cudaparmf3__Z16intersectionPlan5Rayon6float3S0_" from 0x28 to 0x34
GPGPU-Sim PTX: allocating stack frame region for .param "__cudaretf__Z10getNormale6float3S_" from 0x0 to 0xc
GPGPU-Sim PTX: allocating stack frame region for .param "__cudaparmf1__Z10getNormale6float3S_" from 0xc to 0x18
GPGPU-Sim PTX: allocating stack frame region for .param "__cudaparmf2__Z10getNormale6float3S_" from 0x18 to 0x24
GPGPU-Sim PTX: allocating stack frame region for .param "__cudaretf__Z11getNormaleP6float3" from 0x0 to 0xc
GPGPU-Sim PTX: allocating stack frame region for .param "__cudaparmf1__Z11getNormaleP6float3" from 0xc to 0x18
GPGPU-Sim PTX: allocating stack frame region for .param "__cudaretf__Z14rgbaFloatToInt6float4" from 0x0 to 0x4
GPGPU-Sim PTX: allocating stack frame region for .param "__cudaparmf1__Z14rgbaFloatToInt6float4" from 0x4 to 0x14
GPGPU-Sim PTX: allocating stack frame region for .param "__cudaretf__Z12notShadowRayP4Node6float3S1_f" from 0x0 to 0x4
GPGPU-Sim PTX: allocating stack frame region for .param "__cudaparmf1__Z12notShadowRayP4Node6float3S1_f" from 0x4 to 0xc
GPGPU-Sim PTX: allocating stack frame region for .param "__cudaparmf2__Z12notShadowRayP4Node6float3S1_f" from 0xc to 0x18
GPGPU-Sim PTX: allocating stack frame region for .param "__cudaparmf3__Z12notShadowRayP4Node6float3S1_f" from 0x18 to 0x24
GPGPU-Sim PTX: allocating stack frame region for .param "__cudaparmf4__Z12notShadowRayP4Node6float3S1_f" from 0x24 to 0x28
GPGPU-Sim PTX: allocating stack frame region for .param "__cudaretf__Z15float2int_pow20f" from 0x0 to 0x4
GPGPU-Sim PTX: allocating stack frame region for .param "__cudaparmf1__Z15float2int_pow20f" from 0x4 to 0x8
GPGPU-Sim PTX: allocating stack frame region for .param "__cudaretf__Z15float2int_pow50f" from 0x0 to 0x4
GPGPU-Sim PTX: allocating stack frame region for .param "__cudaparmf1__Z15float2int_pow50f" from 0x4 to 0x8
GPGPU-Sim PTX: allocating stack frame region for .param "__cudaparmf1__ZN4dim3C1Ejjj" from 0x0 to 0x8
GPGPU-Sim PTX: allocating stack frame region for .param "__cudaparmf2__ZN4dim3C1Ejjj" from 0x8 to 0xc
GPGPU-Sim PTX: allocating stack frame region for .param "__cudaparmf3__ZN4dim3C1Ejjj" from 0xc to 0x10
GPGPU-Sim PTX: allocating stack frame region for .param "__cudaparmf4__ZN4dim3C1Ejjj" from 0x10 to 0x14
GPGPU-Sim PTX: instruction assembly for function '_Zmi6float3S_'...   done.
GPGPU-Sim PTX: finding reconvergence points for '_Zmi6float3S_'...
GPGPU-Sim PTX: Finding dominators for '_Zmi6float3S_'...
GPGPU-Sim PTX: Finding immediate dominators for '_Zmi6float3S_'...
GPGPU-Sim PTX: Finding postdominators for '_Zmi6float3S_'...
GPGPU-Sim PTX: Finding immediate postdominators for '_Zmi6float3S_'...
GPGPU-Sim PTX: pre-decoding instructions for '_Zmi6float3S_'...
GPGPU-Sim PTX: reconvergence points for _Zmi6float3S_...
GPGPU-Sim PTX: ... end of reconvergence points for _Zmi6float3S_
GPGPU-Sim PTX: ... done pre-decoding instructions for '_Zmi6float3S_'.
GPGPU-Sim PTX: instruction assembly for function '_Z9normalize6float3'...   done.
GPGPU-Sim PTX: finding reconvergence points for '_Z9normalize6float3'...
GPGPU-Sim PTX: Finding dominators for '_Z9normalize6float3'...
GPGPU-Sim PTX: Finding immediate dominators for '_Z9normalize6float3'...
GPGPU-Sim PTX: Finding postdominators for '_Z9normalize6float3'...
GPGPU-Sim PTX: Finding immediate postdominators for '_Z9normalize6float3'...
GPGPU-Sim PTX: pre-decoding instructions for '_Z9normalize6float3'...
GPGPU-Sim PTX: reconvergence points for _Z9normalize6float3...
GPGPU-Sim PTX: ... end of reconvergence points for _Z9normalize6float3
GPGPU-Sim PTX: ... done pre-decoding instructions for '_Z9normalize6float3'.
GPGPU-Sim PTX: instruction assembly for function '_Z18intersectionSphere5Rayon6float3f'...   done.
GPGPU-Sim PTX: finding reconvergence points for '_Z18intersectionSphere5Rayon6float3f'...
GPGPU-Sim PTX: Finding dominators for '_Z18intersectionSphere5Rayon6float3f'...
GPGPU-Sim PTX: Finding immediate dominators for '_Z18intersectionSphere5Rayon6float3f'...
GPGPU-Sim PTX: Finding postdominators for '_Z18intersectionSphere5Rayon6float3f'...
GPGPU-Sim PTX: Finding immediate postdominators for '_Z18intersectionSphere5Rayon6float3f'...
GPGPU-Sim PTX: pre-decoding instructions for '_Z18intersectionSphere5Rayon6float3f'...
GPGPU-Sim PTX: reconvergence points for _Z18intersectionSphere5Rayon6float3f...
GPGPU-Sim PTX:  1 (potential) branch divergence @  PC=0x250 (_1.ptx:173) @%p2 bra $Lt_2_3074;
GPGPU-Sim PTX:    immediate post dominator      @  PC=0x2c0 (_1.ptx:193) mov.f32 %f39, %f32;
GPGPU-Sim PTX:  2 (potential) branch divergence @  PC=0x260 (_1.ptx:175) bra.uni $Lt_2_2818;
GPGPU-Sim PTX:    immediate post dominator      @  PC=0x2c0 (_1.ptx:193) mov.f32 %f39, %f32;
GPGPU-Sim PTX:  3 (potential) branch divergence @  PC=0x280 (_1.ptx:180) @!%p3 bra $Lt_2_3586;
GPGPU-Sim PTX:    immediate post dominator      @  PC=0x2c0 (_1.ptx:193) mov.f32 %f39, %f32;
GPGPU-Sim PTX:  4 (potential) branch divergence @  PC=0x290 (_1.ptx:182) bra.uni $Lt_2_3330;
GPGPU-Sim PTX:    immediate post dominator      @  PC=0x2c0 (_1.ptx:193) mov.f32 %f39, %f32;
GPGPU-Sim PTX: ... end of reconvergence points for _Z18intersectionSphere5Rayon6float3f
GPGPU-Sim PTX: ... done pre-decoding instructions for '_Z18intersectionSphere5Rayon6float3f'.
GPGPU-Sim PTX: instruction assembly for function '_Z16intersectionPlan5Rayon6float3S0_'...   done.
GPGPU-Sim PTX: finding reconvergence points for '_Z16intersectionPlan5Rayon6float3S0_'...
GPGPU-Sim PTX: Finding dominators for '_Z16intersectionPlan5Rayon6float3S0_'...
GPGPU-Sim PTX: Finding immediate dominators for '_Z16intersectionPlan5Rayon6float3S0_'...
GPGPU-Sim PTX: Finding postdominators for '_Z16intersectionPlan5Rayon6float3S0_'...
GPGPU-Sim PTX: Finding immediate postdominators for '_Z16intersectionPlan5Rayon6float3S0_'...
GPGPU-Sim PTX: pre-decoding instructions for '_Z16intersectionPlan5Rayon6float3S0_'...
GPGPU-Sim PTX: reconvergence points for _Z16intersectionPlan5Rayon6float3S0_...
GPGPU-Sim PTX:  1 (potential) branch divergence @  PC=0x320 (_1.ptx:214) @!%p1 bra $Lt_3_2050;
GPGPU-Sim PTX:    immediate post dominator      @  PC=0x368 (_1.ptx:227) mov.f32 %f14, %f9;
GPGPU-Sim PTX:  2 (potential) branch divergence @  PC=0x330 (_1.ptx:216) bra.uni $Lt_3_1794;
GPGPU-Sim PTX:    immediate post dominator      @  PC=0x368 (_1.ptx:227) mov.f32 %f14, %f9;
GPGPU-Sim PTX: ... end of reconvergence points for _Z16intersectionPlan5Rayon6float3S0_
GPGPU-Sim PTX: ... done pre-decoding instructions for '_Z16intersectionPlan5Rayon6float3S0_'.
GPGPU-Sim PTX: instruction assembly for function '_Z10getNormale6float3S_'...   done.
GPGPU-Sim PTX: finding reconvergence points for '_Z10getNormale6float3S_'...
GPGPU-Sim PTX: Finding dominators for '_Z10getNormale6float3S_'...
GPGPU-Sim PTX: Finding immediate dominators for '_Z10getNormale6float3S_'...
GPGPU-Sim PTX: Finding postdominators for '_Z10getNormale6float3S_'...
GPGPU-Sim PTX: Finding immediate postdominators for '_Z10getNormale6float3S_'...
GPGPU-Sim PTX: pre-decoding instructions for '_Z10getNormale6float3S_'...
GPGPU-Sim PTX: reconvergence points for _Z10getNormale6float3S_...
GPGPU-Sim PTX: ... end of reconvergence points for _Z10getNormale6float3S_
GPGPU-Sim PTX: ... done pre-decoding instructions for '_Z10getNormale6float3S_'.
GPGPU-Sim PTX: instruction assembly for function '_Z11getNormaleP6float3'...   done.
GPGPU-Sim PTX: finding reconvergence points for '_Z11getNormaleP6float3'...
GPGPU-Sim PTX: Finding dominators for '_Z11getNormaleP6float3'...
GPGPU-Sim PTX: Finding immediate dominators for '_Z11getNormaleP6float3'...
GPGPU-Sim PTX: Finding postdominators for '_Z11getNormaleP6float3'...
GPGPU-Sim PTX: Finding immediate postdominators for '_Z11getNormaleP6float3'...
GPGPU-Sim PTX: pre-decoding instructions for '_Z11getNormaleP6float3'...
GPGPU-Sim PTX: reconvergence points for _Z11getNormaleP6float3...
GPGPU-Sim PTX: ... end of reconvergence points for _Z11getNormaleP6float3
GPGPU-Sim PTX: ... done pre-decoding instructions for '_Z11getNormaleP6float3'.
GPGPU-Sim PTX: instruction assembly for function '_Z14rgbaFloatToInt6float4'...   done.
GPGPU-Sim PTX: finding reconvergence points for '_Z14rgbaFloatToInt6float4'...
GPGPU-Sim PTX: Finding dominators for '_Z14rgbaFloatToInt6float4'...
GPGPU-Sim PTX: Finding immediate dominators for '_Z14rgbaFloatToInt6float4'...
GPGPU-Sim PTX: Finding postdominators for '_Z14rgbaFloatToInt6float4'...
GPGPU-Sim PTX: Finding immediate postdominators for '_Z14rgbaFloatToInt6float4'...
GPGPU-Sim PTX: pre-decoding instructions for '_Z14rgbaFloatToInt6float4'...
GPGPU-Sim PTX: reconvergence points for _Z14rgbaFloatToInt6float4...
GPGPU-Sim PTX: ... end of reconvergence points for _Z14rgbaFloatToInt6float4
GPGPU-Sim PTX: ... done pre-decoding instructions for '_Z14rgbaFloatToInt6float4'.
GPGPU-Sim PTX: allocating global region for "cnode" from 0x100 to 0x1a0 (global memory space)
GPGPU-Sim PTX: instruction assembly for function '_Z12notShadowRayP4Node6float3S1_f'...   done.
GPGPU-Sim PTX: finding reconvergence points for '_Z12notShadowRayP4Node6float3S1_f'...
GPGPU-Sim PTX: Finding dominators for '_Z12notShadowRayP4Node6float3S1_f'...
GPGPU-Sim PTX: Finding immediate dominators for '_Z12notShadowRayP4Node6float3S1_f'...
GPGPU-Sim PTX: Finding postdominators for '_Z12notShadowRayP4Node6float3S1_f'...
GPGPU-Sim PTX: Finding immediate postdominators for '_Z12notShadowRayP4Node6float3S1_f'...
GPGPU-Sim PTX: pre-decoding instructions for '_Z12notShadowRayP4Node6float3S1_f'...
GPGPU-Sim PTX: reconvergence points for _Z12notShadowRayP4Node6float3S1_f...
GPGPU-Sim PTX:  1 (potential) branch divergence @  PC=0x638 (_1.ptx:364) @%p1 bra $Lt_7_8450;
GPGPU-Sim PTX:    immediate post dominator      @  PC=0x828 (_1.ptx:441) mov.f32 %f58, 0f00000000;    // 0
GPGPU-Sim PTX:  2 (potential) branch divergence @  PC=0x658 (_1.ptx:369) @!%p2 bra $Lt_7_8962;
GPGPU-Sim PTX:    immediate post dominator      @  PC=0x6b8 (_1.ptx:385) mov.f32 %f28, %f20;
GPGPU-Sim PTX:  3 (potential) branch divergence @  PC=0x668 (_1.ptx:371) bra.uni $Lt_7_8706;
GPGPU-Sim PTX:    immediate post dominator      @  PC=0x6b8 (_1.ptx:385) mov.f32 %f28, %f20;
GPGPU-Sim PTX:  4 (potential) branch divergence @  PC=0x6c0 (_1.ptx:386) bra.uni $Lt_7_8194;
GPGPU-Sim PTX:    immediate post dominator      @  PC=0x828 (_1.ptx:441) mov.f32 %f58, 0f00000000;    // 0
GPGPU-Sim PTX:  5 (potential) branch divergence @  PC=0x7b0 (_1.ptx:418) @%p5 bra $Lt_7_9474;
GPGPU-Sim PTX:    immediate post dominator      @  PC=0x820 (_1.ptx:438) mov.f32 %f28, %f51;
GPGPU-Sim PTX:  6 (potential) branch divergence @  PC=0x7c0 (_1.ptx:420) bra.uni $Lt_7_9730;
GPGPU-Sim PTX:    immediate post dominator      @  PC=0x820 (_1.ptx:438) mov.f32 %f28, %f51;
GPGPU-Sim PTX:  7 (potential) branch divergence @  PC=0x7e0 (_1.ptx:425) @!%p6 bra $Lt_7_9986;
GPGPU-Sim PTX:    immediate post dominator      @  PC=0x820 (_1.ptx:438) mov.f32 %f28, %f51;
GPGPU-Sim PTX:  8 (potential) branch divergence @  PC=0x7f0 (_1.ptx:427) bra.uni $Lt_7_9730;
GPGPU-Sim PTX:    immediate post dominator      @  PC=0x820 (_1.ptx:438) mov.f32 %f28, %f51;
GPGPU-Sim PTX:  9 (potential) branch divergence @  PC=0x838 (_1.ptx:443) @!%p7 bra $Lt_7_10242;
GPGPU-Sim PTX:    immediate post dominator      @  PC=0x8e8 (_1.ptx:468) add.s32 %r1, %r1, 1;
GPGPU-Sim PTX: 10 (potential) branch divergence @  PC=0x8d8 (_1.ptx:463) @!%p8 bra $Lt_7_10242;
GPGPU-Sim PTX:    immediate post dominator      @  PC=0x8e8 (_1.ptx:468) add.s32 %r1, %r1, 1;
GPGPU-Sim PTX: 11 (potential) branch divergence @  PC=0x908 (_1.ptx:472) @%p9 bra $Lt_7_10754;
GPGPU-Sim PTX:    immediate post dominator      @  PC=0x960 (_1.ptx:486) selp.s32 %r10, 1, 0, %p11;
GPGPU-Sim PTX: 12 (potential) branch divergence @  PC=0x930 (_1.ptx:477) @%p10 bra $L_7_7170;
GPGPU-Sim PTX:    immediate post dominator      @  PC=0x960 (_1.ptx:486) selp.s32 %r10, 1, 0, %p11;
GPGPU-Sim PTX: 13 (potential) branch divergence @  PC=0x938 (_1.ptx:478) bra.uni $L_7_7938;
GPGPU-Sim PTX:    immediate post dominator      @  PC=0x960 (_1.ptx:486) selp.s32 %r10, 1, 0, %p11;
GPGPU-Sim PTX: ... end of reconvergence points for _Z12notShadowRayP4Node6float3S1_f
GPGPU-Sim PTX: ... done pre-decoding instructions for '_Z12notShadowRayP4Node6float3S1_f'.
GPGPU-Sim PTX: instruction assembly for function '_Z15float2int_pow20f'...   done.
GPGPU-Sim PTX: finding reconvergence points for '_Z15float2int_pow20f'...
GPGPU-Sim PTX: Finding dominators for '_Z15float2int_pow20f'...
GPGPU-Sim PTX: Finding immediate dominators for '_Z15float2int_pow20f'...
GPGPU-Sim PTX: Finding postdominators for '_Z15float2int_pow20f'...
GPGPU-Sim PTX: Finding immediate postdominators for '_Z15float2int_pow20f'...
GPGPU-Sim PTX: pre-decoding instructions for '_Z15float2int_pow20f'...
GPGPU-Sim PTX: reconvergence points for _Z15float2int_pow20f...
GPGPU-Sim PTX: ... end of reconvergence points for _Z15float2int_pow20f
GPGPU-Sim PTX: ... done pre-decoding instructions for '_Z15float2int_pow20f'.
GPGPU-Sim PTX: instruction assembly for function '_Z15float2int_pow50f'...   done.
GPGPU-Sim PTX: finding reconvergence points for '_Z15float2int_pow50f'...
GPGPU-Sim PTX: Finding dominators for '_Z15float2int_pow50f'...
GPGPU-Sim PTX: Finding immediate dominators for '_Z15float2int_pow50f'...
GPGPU-Sim PTX: Finding postdominators for '_Z15float2int_pow50f'...
GPGPU-Sim PTX: Finding immediate postdominators for '_Z15float2int_pow50f'...
GPGPU-Sim PTX: pre-decoding instructions for '_Z15float2int_pow50f'...
GPGPU-Sim PTX: reconvergence points for _Z15float2int_pow50f...
GPGPU-Sim PTX: ... end of reconvergence points for _Z15float2int_pow50f
GPGPU-Sim PTX: ... done pre-decoding instructions for '_Z15float2int_pow50f'.
GPGPU-Sim PTX: allocating constant region for "MView" from 0x200 to 0x230 (global memory space) 1
GPGPU-Sim PTX: allocating stack frame region for .local "__cuda___cuda_local_var_35463_9_non_const_pile_32240" from 0x0 to 0x50
GPGPU-Sim PTX: instruction assembly for function '_Z6renderPjP4Nodejjff'...   done.
GPGPU-Sim PTX: finding reconvergence points for '_Z6renderPjP4Nodejjff'...
GPGPU-Sim PTX: Finding dominators for '_Z6renderPjP4Nodejjff'...
GPGPU-Sim PTX: Finding immediate dominators for '_Z6renderPjP4Nodejjff'...
GPGPU-Sim PTX: Finding postdominators for '_Z6renderPjP4Nodejjff'...
GPGPU-Sim PTX: Finding immediate postdominators for '_Z6renderPjP4Nodejjff'...
GPGPU-Sim PTX: pre-decoding instructions for '_Z6renderPjP4Nodejjff'...
GPGPU-Sim PTX: reconvergence points for _Z6renderPjP4Nodejjff...
GPGPU-Sim PTX:  1 (potential) branch divergence @  PC=0xdb0 (_1.ptx:663) @%p1 bra $Lt_10_44034;
GPGPU-Sim PTX:    immediate post dominator      @  PC=0x2370 (_1.ptx:1495) exit;
GPGPU-Sim PTX:  2 (potential) branch divergence @  PC=0x1028 (_1.ptx:751) @%p2 bra $Lt_10_45570;
GPGPU-Sim PTX:    immediate post dominator      @  PC=0x11b8 (_1.ptx:815) mov.f32 %f108, 0f00000000;   // 0
GPGPU-Sim PTX:  3 (potential) branch divergence @  PC=0x1048 (_1.ptx:756) @!%p3 bra $Lt_10_46082;
GPGPU-Sim PTX:    immediate post dominator      @  PC=0x1090 (_1.ptx:769) mov.f32 %f87, %f82;
GPGPU-Sim PTX:  4 (potential) branch divergence @  PC=0x1058 (_1.ptx:758) bra.uni $Lt_10_45826;
GPGPU-Sim PTX:    immediate post dominator      @  PC=0x1090 (_1.ptx:769) mov.f32 %f87, %f82;
GPGPU-Sim PTX:  5 (potential) branch divergence @  PC=0x1098 (_1.ptx:770) bra.uni $Lt_10_45314;
GPGPU-Sim PTX:    immediate post dominator      @  PC=0x11b8 (_1.ptx:815) mov.f32 %f108, 0f00000000;   // 0
GPGPU-Sim PTX:  6 (potential) branch divergence @  PC=0x1140 (_1.ptx:793) @%p6 bra $Lt_10_46594;
GPGPU-Sim PTX:    immediate post dominator      @  PC=0x11b0 (_1.ptx:813) mov.f32 %f87, %f101;
GPGPU-Sim PTX:  7 (potential) branch divergence @  PC=0x1150 (_1.ptx:795) bra.uni $Lt_10_46850;
GPGPU-Sim PTX:    immediate post dominator      @  PC=0x11b0 (_1.ptx:813) mov.f32 %f87, %f101;
GPGPU-Sim PTX:  8 (potential) branch divergence @  PC=0x1170 (_1.ptx:800) @!%p7 bra $Lt_10_47106;
GPGPU-Sim PTX:    immediate post dominator      @  PC=0x11b0 (_1.ptx:813) mov.f32 %f87, %f101;
GPGPU-Sim PTX:  9 (potential) branch divergence @  PC=0x1180 (_1.ptx:802) bra.uni $Lt_10_46850;
GPGPU-Sim PTX:    immediate post dominator      @  PC=0x11b0 (_1.ptx:813) mov.f32 %f87, %f101;
GPGPU-Sim PTX: 10 (potential) branch divergence @  PC=0x11f8 (_1.ptx:823) @%p8 bra $Lt_10_47362;
GPGPU-Sim PTX:    immediate post dominator      @  PC=0x1210 (_1.ptx:829) add.s32 %r25, %r25, 1;
GPGPU-Sim PTX: 11 (potential) branch divergence @  PC=0x1230 (_1.ptx:833) @%p9 bra $Lt_10_45058;
GPGPU-Sim PTX:    immediate post dominator      @  PC=0x1238 (_1.ptx:834) mov.f32 %f109, 0f00000000;   // 0
GPGPU-Sim PTX: 12 (potential) branch divergence @  PC=0x1280 (_1.ptx:843) @%p10 bra $Lt_10_48130;
GPGPU-Sim PTX:    immediate post dominator      @  PC=0x2140 (_1.ptx:1416) add.s32 %r23, %r23, 1;
GPGPU-Sim PTX: 13 (potential) branch divergence @  PC=0x1330 (_1.ptx:868) @%p11 bra $Lt_10_48898;
GPGPU-Sim PTX:    immediate post dominator      @  PC=0x13b8 (_1.ptx:888) sub.f32 %f136, %f21, %f119;
GPGPU-Sim PTX: 14 (potential) branch divergence @  PC=0x1350 (_1.ptx:873) bra.uni $Lt_10_48642;
GPGPU-Sim PTX:    immediate post dominator      @  PC=0x13b8 (_1.ptx:888) sub.f32 %f136, %f21, %f119;
GPGPU-Sim PTX: 15 (potential) branch divergence @  PC=0x1430 (_1.ptx:903) @!%p12 bra $Lt_10_49410;
GPGPU-Sim PTX:    immediate post dominator      @  PC=0x1470 (_1.ptx:915) mov.f32 %f153, 0f3d4ccccd;   // 0.05
GPGPU-Sim PTX: 16 (potential) branch divergence @  PC=0x1450 (_1.ptx:908) bra.uni $Lt_10_49154;
GPGPU-Sim PTX:    immediate post dominator      @  PC=0x1470 (_1.ptx:915) mov.f32 %f153, 0f3d4ccccd;   // 0.05
GPGPU-Sim PTX: 17 (potential) branch divergence @  PC=0x1578 (_1.ptx:949) @!%p13 bra $Lt_10_58114;
GPGPU-Sim PTX:    immediate post dominator      @  PC=0x2080 (_1.ptx:1388) add.f32 %f399, %f126, %f126;
GPGPU-Sim PTX: 18 (potential) branch divergence @  PC=0x15c0 (_1.ptx:961) @%p14 bra $Lt_10_49922;
GPGPU-Sim PTX:    immediate post dominator      @  PC=0x17b0 (_1.ptx:1039) mov.f32 %f221, 0f00000000;   // 0
GPGPU-Sim PTX: 19 (potential) branch divergence @  PC=0x15e0 (_1.ptx:966) @!%p15 bra $Lt_10_50434;
GPGPU-Sim PTX:    immediate post dominator      @  PC=0x1638 (_1.ptx:982) mov.f32 %f190, %f183;
GPGPU-Sim PTX: 20 (potential) branch divergence @  PC=0x15f0 (_1.ptx:968) bra.uni $Lt_10_50178;
GPGPU-Sim PTX:    immediate post dominator      @  PC=0x1638 (_1.ptx:982) mov.f32 %f190, %f183;
GPGPU-Sim PTX: 21 (potential) branch divergence @  PC=0x1640 (_1.ptx:983) bra.uni $Lt_10_49666;
GPGPU-Sim PTX:    immediate post dominator      @  PC=0x17b0 (_1.ptx:1039) mov.f32 %f221, 0f00000000;   // 0
GPGPU-Sim PTX: 22 (potential) branch divergence @  PC=0x1738 (_1.ptx:1016) @%p18 bra $Lt_10_50946;
GPGPU-Sim PTX:    immediate post dominator      @  PC=0x17a8 (_1.ptx:1036) mov.f32 %f190, %f214;
GPGPU-Sim PTX: 23 (potential) branch divergence @  PC=0x1748 (_1.ptx:1018) bra.uni $Lt_10_51202;
GPGPU-Sim PTX:    immediate post dominator      @  PC=0x17a8 (_1.ptx:1036) mov.f32 %f190, %f214;
GPGPU-Sim PTX: 24 (potential) branch divergence @  PC=0x1768 (_1.ptx:1023) @!%p19 bra $Lt_10_51458;
GPGPU-Sim PTX:    immediate post dominator      @  PC=0x17a8 (_1.ptx:1036) mov.f32 %f190, %f214;
GPGPU-Sim PTX: 25 (potential) branch divergence @  PC=0x1778 (_1.ptx:1025) bra.uni $Lt_10_51202;
GPGPU-Sim PTX:    immediate post dominator      @  PC=0x17a8 (_1.ptx:1036) mov.f32 %f190, %f214;
GPGPU-Sim PTX: 26 (potential) branch divergence @  PC=0x17c0 (_1.ptx:1041) @!%p20 bra $Lt_10_58370;
GPGPU-Sim PTX:    immediate post dominator      @  PC=0x1828 (_1.ptx:1057) add.s32 %r50, %r50, 1;
GPGPU-Sim PTX: 27 (potential) branch divergence @  PC=0x1818 (_1.ptx:1052) @!%p21 bra $Lt_10_58370;
GPGPU-Sim PTX:    immediate post dominator      @  PC=0x1828 (_1.ptx:1057) add.s32 %r50, %r50, 1;
GPGPU-Sim PTX: 28 (potential) branch divergence @  PC=0x1848 (_1.ptx:1061) @%p22 bra $Lt_10_58882;
GPGPU-Sim PTX:    immediate post dominator      @  PC=0x1880 (_1.ptx:1071) @!%p23 bra $Lt_10_58114;
GPGPU-Sim PTX: 29 (potential) branch divergence @  PC=0x1860 (_1.ptx:1064) @%p23 bra $L_10_42498;
GPGPU-Sim PTX:    immediate post dominator      @  PC=0x1880 (_1.ptx:1071) @!%p23 bra $Lt_10_58114;
GPGPU-Sim PTX: 30 (potential) branch divergence @  PC=0x1868 (_1.ptx:1065) bra.uni $L_10_43266;
GPGPU-Sim PTX:    immediate post dominator      @  PC=0x1880 (_1.ptx:1071) @!%p23 bra $Lt_10_58114;
GPGPU-Sim PTX: 31 (potential) branch divergence @  PC=0x1880 (_1.ptx:1071) @!%p23 bra $Lt_10_58114;
GPGPU-Sim PTX:    immediate post dominator      @  PC=0x2080 (_1.ptx:1388) add.f32 %f399, %f126, %f126;
GPGPU-Sim PTX: 32 (potential) branch divergence @  PC=0x19c8 (_1.ptx:1115) @!%p24 bra $Lt_10_51714;
GPGPU-Sim PTX:    immediate post dominator      @  PC=0x2040 (_1.ptx:1375) mov.f32 %f394, 0f3f4ccccd;   // 0.8
GPGPU-Sim PTX: 33 (potential) branch divergence @  PC=0x19d8 (_1.ptx:1118) bra.uni $LDWendi___isnanf_192_1;
GPGPU-Sim PTX:    immediate post dominator      @  PC=0x2040 (_1.ptx:1375) mov.f32 %f394, 0f3f4ccccd;   // 0.8
GPGPU-Sim PTX: 34 (potential) branch divergence @  PC=0x19f8 (_1.ptx:1124) @!%p25 bra $Lt_10_7682;
GPGPU-Sim PTX:    immediate post dominator      @  PC=0x2040 (_1.ptx:1375) mov.f32 %f394, 0f3f4ccccd;   // 0.8
GPGPU-Sim PTX: 35 (potential) branch divergence @  PC=0x1a00 (_1.ptx:1125) bra.uni $Lt_10_7938;
GPGPU-Sim PTX:    immediate post dominator      @  PC=0x1a20 (_1.ptx:1133) mov.f32 %f272, 0f7f800000;   // ((1.0F)/(0.0F))
GPGPU-Sim PTX: 36 (potential) branch divergence @  PC=0x1a18 (_1.ptx:1130) bra.uni $LDWendi___isnanf_192_1;
GPGPU-Sim PTX:    immediate post dominator      @  PC=0x2040 (_1.ptx:1375) mov.f32 %f394, 0f3f4ccccd;   // 0.8
GPGPU-Sim PTX: 37 (potential) branch divergence @  PC=0x1a30 (_1.ptx:1135) @!%p26 bra $Lt_10_52226;
GPGPU-Sim PTX:    immediate post dominator      @  PC=0x2040 (_1.ptx:1375) mov.f32 %f394, 0f3f4ccccd;   // 0.8
GPGPU-Sim PTX: 38 (potential) branch divergence @  PC=0x1a40 (_1.ptx:1138) bra.uni $LDWendi___isnanf_192_1;
GPGPU-Sim PTX:    immediate post dominator      @  PC=0x2040 (_1.ptx:1375) mov.f32 %f394, 0f3f4ccccd;   // 0.8
GPGPU-Sim PTX: 39 (potential) branch divergence @  PC=0x1a58 (_1.ptx:1142) @!%p27 bra $Lt_10_52738;
GPGPU-Sim PTX:    immediate post dominator      @  PC=0x2040 (_1.ptx:1375) mov.f32 %f394, 0f3f4ccccd;   // 0.8
GPGPU-Sim PTX: 40 (potential) branch divergence @  PC=0x1ab8 (_1.ptx:1155) bra.uni $LDWendi___isnanf_192_1;
GPGPU-Sim PTX:    immediate post dominator      @  PC=0x2040 (_1.ptx:1375) mov.f32 %f394, 0f3f4ccccd;   // 0.8
GPGPU-Sim PTX: 41 (potential) branch divergence @  PC=0x1ad0 (_1.ptx:1159) @!%p29 bra $Lt_10_53250;
GPGPU-Sim PTX:    immediate post dominator      @  PC=0x2040 (_1.ptx:1375) mov.f32 %f394, 0f3f4ccccd;   // 0.8
GPGPU-Sim PTX: 42 (potential) branch divergence @  PC=0x1b20 (_1.ptx:1170) @!%p30 bra $Lt_10_53762;
GPGPU-Sim PTX:    immediate post dominator      @  PC=0x1b40 (_1.ptx:1177) mov.f32 %f268, %f284;
GPGPU-Sim PTX: 43 (potential) branch divergence @  PC=0x1b48 (_1.ptx:1178) bra.uni $LDWendi___isnanf_192_1;
GPGPU-Sim PTX:    immediate post dominator      @  PC=0x2040 (_1.ptx:1375) mov.f32 %f394, 0f3f4ccccd;   // 0.8
GPGPU-Sim PTX: 44 (potential) branch divergence @  PC=0x1b60 (_1.ptx:1183) @!%p31 bra $Lt_10_59394;
GPGPU-Sim PTX:    immediate post dominator      @  PC=0x2040 (_1.ptx:1375) mov.f32 %f394, 0f3f4ccccd;   // 0.8
GPGPU-Sim PTX: 45 (potential) branch divergence @  PC=0x1b88 (_1.ptx:1188) @!%p32 bra $Lt_10_59394;
GPGPU-Sim PTX:    immediate post dominator      @  PC=0x2040 (_1.ptx:1375) mov.f32 %f394, 0f3f4ccccd;   // 0.8
GPGPU-Sim PTX: 46 (potential) branch divergence @  PC=0x1ba0 (_1.ptx:1192) bra.uni $LDWendi___isnanf_192_1;
GPGPU-Sim PTX:    immediate post dominator      @  PC=0x2040 (_1.ptx:1375) mov.f32 %f394, 0f3f4ccccd;   // 0.8
GPGPU-Sim PTX: 47 (potential) branch divergence @  PC=0x1bd8 (_1.ptx:1202) @%p33 bra $Lt_10_54530;
GPGPU-Sim PTX:    immediate post dominator      @  PC=0x1c20 (_1.ptx:1216) sub.s32 %r64, %r64, 127;
GPGPU-Sim PTX: 48 (potential) branch divergence @  PC=0x1c10 (_1.ptx:1211) bra.uni $Lt_10_54274;
GPGPU-Sim PTX:    immediate post dominator      @  PC=0x1c20 (_1.ptx:1216) sub.s32 %r64, %r64, 127;
GPGPU-Sim PTX: 49 (potential) branch divergence @  PC=0x1c58 (_1.ptx:1224) @!%p34 bra $Lt_10_54786;
GPGPU-Sim PTX:    immediate post dominator      @  PC=0x1c78 (_1.ptx:1232) mov.f32 %f302, 0fbf800000;   // -1
GPGPU-Sim PTX: 50 (potential) branch divergence @  PC=0x1eb0 (_1.ptx:1312) @%p35 bra $Lt_10_55298;
GPGPU-Sim PTX:    immediate post dominator      @  PC=0x1ed8 (_1.ptx:1321) mov.f32 %f367, %f365;
GPGPU-Sim PTX: 51 (potential) branch divergence @  PC=0x1f98 (_1.ptx:1346) @!%p38 bra $Lt_10_55810;
GPGPU-Sim PTX:    immediate post dominator      @  PC=0x1fa8 (_1.ptx:1351) mov.f32 %f284, %f386;
GPGPU-Sim PTX: 52 (potential) branch divergence @  PC=0x2018 (_1.ptx:1365) @%p39 bra $Lt_10_56322;
GPGPU-Sim PTX:    immediate post dominator      @  PC=0x2038 (_1.ptx:1372) mov.f32 %f268, %f284;
GPGPU-Sim PTX: 53 (potential) branch divergence @  PC=0x2158 (_1.ptx:1419) @%p40 bra $L_10_42242;
GPGPU-Sim PTX:    immediate post dominator      @  PC=0x2170 (_1.ptx:1424) sub.s32 %r86, %r24, 1;
GPGPU-Sim PTX: 54 (potential) branch divergence @  PC=0x2168 (_1.ptx:1421) @%p41 bra $L_10_41474;
GPGPU-Sim PTX:    immediate post dominator      @  PC=0x2170 (_1.ptx:1424) sub.s32 %r86, %r24, 1;
GPGPU-Sim PTX: 55 (potential) branch divergence @  PC=0x2190 (_1.ptx:1428) @%p42 bra $Lt_10_56834;
GPGPU-Sim PTX:    immediate post dominator      @  PC=0x2288 (_1.ptx:1464) ld.global.u32 %r92, [%rd4+0];
GPGPU-Sim PTX: 56 (potential) branch divergence @  PC=0x2280 (_1.ptx:1461) @%p43 bra $Lt_10_57346;
GPGPU-Sim PTX:    immediate post dominator      @  PC=0x2288 (_1.ptx:1464) ld.global.u32 %r92, [%rd4+0];
GPGPU-Sim PTX: ... end of reconvergence points for _Z6renderPjP4Nodejjff
GPGPU-Sim PTX: ... done pre-decoding instructions for '_Z6renderPjP4Nodejjff'.
GPGPU-Sim PTX: instruction assembly for function '_ZN4dim3C1Ejjj'...   done.
GPGPU-Sim PTX: finding reconvergence points for '_ZN4dim3C1Ejjj'...
GPGPU-Sim PTX: Finding dominators for '_ZN4dim3C1Ejjj'...
GPGPU-Sim PTX: Finding immediate dominators for '_ZN4dim3C1Ejjj'...
GPGPU-Sim PTX: Finding postdominators for '_ZN4dim3C1Ejjj'...
GPGPU-Sim PTX: Finding immediate postdominators for '_ZN4dim3C1Ejjj'...
GPGPU-Sim PTX: pre-decoding instructions for '_ZN4dim3C1Ejjj'...
GPGPU-Sim PTX: reconvergence points for _ZN4dim3C1Ejjj...
GPGPU-Sim PTX: ... end of reconvergence points for _ZN4dim3C1Ejjj
GPGPU-Sim PTX: ... done pre-decoding instructions for '_ZN4dim3C1Ejjj'.
GPGPU-Sim PTX: finished parsing EMBEDDED .ptx file _1.ptx
Adding _cuobjdump_1.ptx with cubin handle 1
GPGPU-Sim PTX: extracting embedded .ptx to temporary file "_ptx_2tR4JV"
Running: cat _ptx_2tR4JV | sed 's/.version 1.5/.version 1.4/' | sed 's/, texmode_independent//' | sed 's/\(\.extern \.const\[1\] .b8 \w\+\)\[\]/\1\[1\]/' | sed 's/const\[.\]/const\[0\]/g' > _ptx2_mRxk8w
GPGPU-Sim PTX: generating ptxinfo using "$CUDA_INSTALL_PATH/bin/ptxas --gpu-name=sm_20 -v _ptx2_mRxk8w --output-file  /dev/null 2> _ptx_2tR4JVinfo"
GPGPU-Sim PTX: Kernel '_Z6renderPjP4Nodejjff' : regs=45, lmem=4, smem=0, cmem=180
GPGPU-Sim PTX: removing ptxinfo using "rm -f _ptx_2tR4JV _ptx2_mRxk8w _ptx_2tR4JVinfo"
GPGPU-Sim PTX: loading globals with explicit initializers... 
GPGPU-Sim PTX: finished loading globals (0 bytes total).
GPGPU-Sim PTX: loading constants with explicit initializers...  done.
GPGPU-Sim PTX: __cudaRegisterVar: hostVar = 0x62fda0; deviceAddress = MView; deviceName = MView
GPGPU-Sim PTX: __cudaRegisterVar: Registering const memory space of 48 bytes
GPGPU-Sim PTX registering constant MView (48 bytes) to name mapping
GPGPU-Sim PTX: __cudaRegisterVar: hostVar = 0x62fde0; deviceAddress = cnode; deviceName = cnode
GPGPU-Sim PTX: __cudaRegisterVar: Registering const memory space of 160 bytes
GPGPU-Sim PTX registering constant cnode (160 bytes) to name mapping
GPGPU-Sim PTX: cudaMemcpyToSymbol: symbol = 0x62fde0
GPGPU-Sim PTX: starting gpgpu_ptx_sim_memcpy_symbol with hostVar 0x0x62fde0
GPGPU-Sim PTX: gpgpu_ptx_sim_memcpy_symbol: Found PTX symbol w/ hostVar=0x62fde0
GPGPU-Sim PTX: gpgpu_ptx_sim_memcpy_symbol: copying const memory 160 bytes  to  symbol cnode+0 @0x100 ...
GPGPU-Sim PTX: cudaMemcpyToSymbol: symbol = 0x62fda0
GPGPU-Sim PTX: starting gpgpu_ptx_sim_memcpy_symbol with hostVar 0x0x62fda0
GPGPU-Sim PTX: gpgpu_ptx_sim_memcpy_symbol: Found PTX symbol w/ hostVar=0x62fda0
GPGPU-Sim PTX: gpgpu_ptx_sim_memcpy_symbol: copying const memory 48 bytes  to  symbol MView+0 @0x200 ...

GPGPU-Sim PTX: cudaLaunch for 0x0x40ce13 (mode=performance simulation) on stream 0
GPGPU-Sim PTX: pushing kernel '_Z6renderPjP4Nodejjff' to stream 0, gridDim= (16,32,1) blockDim = (16,8,1) 
kernel '_Z6renderPjP4Nodejjff' transfer to GPU hardware scheduler
GPGPU-Sim uArch: Shader 1 bind to kernel 1 '_Z6renderPjP4Nodejjff'
GPGPU-Sim uArch: CTA/core = 5, limited by: regs
GPGPU-Sim uArch: core:  1, cta: 0 initialized @(1,0)
GPGPU-Sim uArch: Shader 2 bind to kernel 1 '_Z6renderPjP4Nodejjff'
GPGPU-Sim uArch: core:  2, cta: 0 initialized @(1,0)
GPGPU-Sim uArch: Shader 3 bind to kernel 1 '_Z6renderPjP4Nodejjff'
GPGPU-Sim uArch: core:  3, cta: 0 initialized @(1,0)
GPGPU-Sim uArch: Shader 4 bind to kernel 1 '_Z6renderPjP4Nodejjff'
GPGPU-Sim uArch: core:  4, cta: 0 initialized @(1,0)
GPGPU-Sim uArch: Shader 5 bind to kernel 1 '_Z6renderPjP4Nodejjff'
GPGPU-Sim uArch: core:  5, cta: 0 initialized @(1,0)
GPGPU-Sim uArch: Shader 6 bind to kernel 1 '_Z6renderPjP4Nodejjff'
GPGPU-Sim uArch: core:  6, cta: 0 initialized @(1,0)
GPGPU-Sim uArch: Shader 7 bind to kernel 1 '_Z6renderPjP4Nodejjff'
GPGPU-Sim uArch: core:  7, cta: 0 initialized @(1,0)
GPGPU-Sim uArch: Shader 8 bind to kernel 1 '_Z6renderPjP4Nodejjff'
GPGPU-Sim uArch: core:  8, cta: 0 initialized @(1,0)
GPGPU-Sim uArch: Shader 9 bind to kernel 1 '_Z6renderPjP4Nodejjff'
GPGPU-Sim uArch: core:  9, cta: 0 initialized @(1,0)
GPGPU-Sim uArch: Shader 10 bind to kernel 1 '_Z6renderPjP4Nodejjff'
GPGPU-Sim uArch: core: 10, cta: 0 initialized @(1,0)
GPGPU-Sim uArch: Shader 11 bind to kernel 1 '_Z6renderPjP4Nodejjff'
GPGPU-Sim uArch: core: 11, cta: 0 initialized @(1,0)
GPGPU-Sim uArch: Shader 12 bind to kernel 1 '_Z6renderPjP4Nodejjff'
GPGPU-Sim uArch: core: 12, cta: 0 initialized @(1,0)
GPGPU-Sim uArch: Shader 13 bind to kernel 1 '_Z6renderPjP4Nodejjff'
GPGPU-Sim uArch: core: 13, cta: 0 initialized @(1,0)
GPGPU-Sim uArch: Shader 14 bind to kernel 1 '_Z6renderPjP4Nodejjff'
GPGPU-Sim uArch: core: 14, cta: 0 initialized @(1,0)
GPGPU-Sim uArch: Shader 0 bind to kernel 1 '_Z6renderPjP4Nodejjff'
GPGPU-Sim uArch: core:  0, cta: 0 initialized @(1,0)
GPGPU-Sim uArch: core:  1, cta: 1 initialized @(2,0)
GPGPU-Sim uArch: core:  2, cta: 1 initialized @(2,0)
GPGPU-Sim uArch: core:  3, cta: 1 initialized @(2,0)
GPGPU-Sim uArch: core:  4, cta: 1 initialized @(2,0)
GPGPU-Sim uArch: core:  5, cta: 1 initialized @(2,0)
GPGPU-Sim uArch: core:  6, cta: 1 initialized @(2,0)
GPGPU-Sim uArch: core:  7, cta: 1 initialized @(2,0)
GPGPU-Sim uArch: core:  8, cta: 1 initialized @(2,0)
GPGPU-Sim uArch: core:  9, cta: 1 initialized @(2,0)
GPGPU-Sim uArch: core: 10, cta: 1 initialized @(2,0)
GPGPU-Sim uArch: core: 11, cta: 1 initialized @(2,0)
GPGPU-Sim uArch: core: 12, cta: 1 initialized @(2,0)
GPGPU-Sim uArch: core: 13, cta: 1 initialized @(2,0)
GPGPU-Sim uArch: core: 14, cta: 1 initialized @(2,0)
GPGPU-Sim uArch: core:  0, cta: 1 initialized @(2,0)
GPGPU-Sim uArch: core:  1, cta: 2 initialized @(3,0)
GPGPU-Sim uArch: core:  2, cta: 2 initialized @(3,0)
GPGPU-Sim uArch: core:  3, cta: 2 initialized @(3,0)
GPGPU-Sim uArch: core:  4, cta: 2 initialized @(3,0)
GPGPU-Sim uArch: core:  5, cta: 2 initialized @(3,0)
GPGPU-Sim uArch: core:  6, cta: 2 initialized @(3,0)
GPGPU-Sim uArch: core:  7, cta: 2 initialized @(3,0)
GPGPU-Sim uArch: core:  8, cta: 2 initialized @(3,0)
GPGPU-Sim uArch: core:  9, cta: 2 initialized @(3,0)
GPGPU-Sim uArch: core: 10, cta: 2 initialized @(3,0)
GPGPU-Sim uArch: core: 11, cta: 2 initialized @(3,0)
GPGPU-Sim uArch: core: 12, cta: 2 initialized @(3,0)
GPGPU-Sim uArch: core: 13, cta: 2 initialized @(3,0)
GPGPU-Sim uArch: core: 14, cta: 2 initialized @(3,0)
GPGPU-Sim uArch: core:  0, cta: 2 initialized @(3,0)
GPGPU-Sim uArch: core:  1, cta: 3 initialized @(4,0)
GPGPU-Sim uArch: core:  2, cta: 3 initialized @(4,0)
GPGPU-Sim uArch: core:  3, cta: 3 initialized @(4,0)
GPGPU-Sim uArch: core:  4, cta: 3 initialized @(4,0)
GPGPU-Sim uArch: core:  5, cta: 3 initialized @(4,0)
GPGPU-Sim uArch: core:  6, cta: 3 initialized @(4,0)
GPGPU-Sim uArch: core:  7, cta: 3 initialized @(4,0)
GPGPU-Sim uArch: core:  8, cta: 3 initialized @(4,0)
GPGPU-Sim uArch: core:  9, cta: 3 initialized @(4,0)
GPGPU-Sim uArch: core: 10, cta: 3 initialized @(4,0)
GPGPU-Sim uArch: core: 11, cta: 3 initialized @(4,0)
GPGPU-Sim uArch: core: 12, cta: 3 initialized @(4,0)
GPGPU-Sim uArch: core: 13, cta: 3 initialized @(4,0)
GPGPU-Sim uArch: core: 14, cta: 3 initialized @(4,0)
GPGPU-Sim uArch: core:  0, cta: 3 initialized @(4,0)
GPGPU-Sim uArch: core:  1, cta: 4 initialized @(5,0)
GPGPU-Sim uArch: core:  2, cta: 4 initialized @(5,0)
GPGPU-Sim uArch: core:  3, cta: 4 initialized @(5,0)
GPGPU-Sim uArch: core:  4, cta: 4 initialized @(5,0)
GPGPU-Sim uArch: core:  5, cta: 4 initialized @(5,0)
GPGPU-Sim uArch: core:  6, cta: 4 initialized @(5,0)
GPGPU-Sim uArch: core:  7, cta: 4 initialized @(5,0)
GPGPU-Sim uArch: core:  8, cta: 4 initialized @(5,0)
GPGPU-Sim uArch: core:  9, cta: 4 initialized @(5,0)
GPGPU-Sim uArch: core: 10, cta: 4 initialized @(5,0)
GPGPU-Sim uArch: core: 11, cta: 4 initialized @(5,0)
GPGPU-Sim uArch: core: 12, cta: 4 initialized @(5,0)
GPGPU-Sim uArch: core: 13, cta: 4 initialized @(5,0)
GPGPU-Sim uArch: core: 14, cta: 4 initialized @(5,0)
GPGPU-Sim uArch: core:  0, cta: 4 initialized @(5,0)
GPGPU-Sim uArch: cycles simulated: 500  inst.: 36032 (ipc=72.1) sim_rate=36032 (inst/sec) elapsed = 0:0:00:01 / Sun Feb 28 21:43:00 2016
GPGPU-Sim uArch: cycles simulated: 1000  inst.: 61056 (ipc=61.1) sim_rate=30528 (inst/sec) elapsed = 0:0:00:02 / Sun Feb 28 21:43:01 2016
GPGPU-Sim PTX: 100000 instructions simulated : ctaid=(9,0,0) tid=(15,1,0)
GPGPU-Sim uArch: cycles simulated: 3500  inst.: 170464 (ipc=48.7) sim_rate=56821 (inst/sec) elapsed = 0:0:00:03 / Sun Feb 28 21:43:02 2016
GPGPU-Sim PTX: 200000 instructions simulated : ctaid=(2,0,0) tid=(15,5,0)
GPGPU-Sim PTX: 300000 instructions simulated : ctaid=(7,0,0) tid=(15,5,0)
GPGPU-Sim PTX: 400000 instructions simulated : ctaid=(4,0,0) tid=(15,1,0)
GPGPU-Sim uArch: cycles simulated: 5500  inst.: 401600 (ipc=73.0) sim_rate=100400 (inst/sec) elapsed = 0:0:00:04 / Sun Feb 28 21:43:03 2016
GPGPU-Sim PTX: 500000 instructions simulated : ctaid=(0,3,0) tid=(15,5,0)
GPGPU-Sim PTX: 600000 instructions simulated : ctaid=(1,1,0) tid=(15,5,0)
GPGPU-Sim PTX: 700000 instructions simulated : ctaid=(0,0,0) tid=(15,7,0)
GPGPU-Sim uArch: cycles simulated: 7000  inst.: 701216 (ipc=100.2) sim_rate=140243 (inst/sec) elapsed = 0:0:00:05 / Sun Feb 28 21:43:04 2016
GPGPU-Sim PTX: 800000 instructions simulated : ctaid=(2,1,0) tid=(15,7,0)
GPGPU-Sim PTX: 900000 instructions simulated : ctaid=(0,2,0) tid=(15,7,0)
GPGPU-Sim PTX: 1000000 instructions simulated : ctaid=(7,1,0) tid=(15,1,0)
GPGPU-Sim PTX: 1100000 instructions simulated : ctaid=(12,1,0) tid=(15,5,0)
GPGPU-Sim uArch: cycles simulated: 8500  inst.: 1121952 (ipc=132.0) sim_rate=186992 (inst/sec) elapsed = 0:0:00:06 / Sun Feb 28 21:43:05 2016
GPGPU-Sim PTX: 1200000 instructions simulated : ctaid=(8,1,0) tid=(15,3,0)
GPGPU-Sim PTX: 1300000 instructions simulated : ctaid=(10,0,0) tid=(15,5,0)
GPGPU-Sim PTX: 1400000 instructions simulated : ctaid=(10,2,0) tid=(15,7,0)
GPGPU-Sim PTX: 1500000 instructions simulated : ctaid=(5,3,0) tid=(15,3,0)
GPGPU-Sim uArch: cycles simulated: 9500  inst.: 1512384 (ipc=159.2) sim_rate=216054 (inst/sec) elapsed = 0:0:00:07 / Sun Feb 28 21:43:06 2016
GPGPU-Sim PTX: 1600000 instructions simulated : ctaid=(10,4,0) tid=(15,1,0)
GPGPU-Sim PTX: 1700000 instructions simulated : ctaid=(11,1,0) tid=(15,1,0)
GPGPU-Sim PTX: 1800000 instructions simulated : ctaid=(4,3,0) tid=(15,3,0)
GPGPU-Sim PTX: 1900000 instructions simulated : ctaid=(15,1,0) tid=(15,7,0)
GPGPU-Sim PTX: 2000000 instructions simulated : ctaid=(3,1,0) tid=(15,5,0)
GPGPU-Sim PTX: 2100000 instructions simulated : ctaid=(1,0,0) tid=(15,7,0)
GPGPU-Sim PTX: 2200000 instructions simulated : ctaid=(3,1,0) tid=(15,5,0)
GPGPU-Sim uArch: cycles simulated: 10500  inst.: 2196832 (ipc=209.2) sim_rate=274604 (inst/sec) elapsed = 0:0:00:08 / Sun Feb 28 21:43:07 2016
GPGPU-Sim PTX: 2300000 instructions simulated : ctaid=(2,3,0) tid=(15,5,0)
GPGPU-Sim PTX: 2400000 instructions simulated : ctaid=(12,0,0) tid=(15,7,0)
GPGPU-Sim PTX: 2500000 instructions simulated : ctaid=(15,2,0) tid=(15,1,0)
GPGPU-Sim PTX: 2600000 instructions simulated : ctaid=(11,3,0) tid=(15,1,0)
GPGPU-Sim PTX: 2700000 instructions simulated : ctaid=(10,3,0) tid=(15,5,0)
GPGPU-Sim PTX: 2800000 instructions simulated : ctaid=(2,0,0) tid=(15,7,0)
GPGPU-Sim PTX: 2900000 instructions simulated : ctaid=(3,2,0) tid=(15,5,0)
GPGPU-Sim PTX: 3000000 instructions simulated : ctaid=(12,3,0) tid=(15,3,0)
GPGPU-Sim uArch: cycles simulated: 11500  inst.: 2946848 (ipc=256.2) sim_rate=327427 (inst/sec) elapsed = 0:0:00:09 / Sun Feb 28 21:43:08 2016
GPGPU-Sim PTX: 3100000 instructions simulated : ctaid=(5,0,0) tid=(15,1,0)
GPGPU-Sim PTX: 3200000 instructions simulated : ctaid=(9,4,0) tid=(15,3,0)
GPGPU-Sim PTX: 3300000 instructions simulated : ctaid=(3,0,0) tid=(15,5,0)
GPGPU-Sim uArch: cycles simulated: 12000  inst.: 3228896 (ipc=269.1) sim_rate=322889 (inst/sec) elapsed = 0:0:00:10 / Sun Feb 28 21:43:09 2016
GPGPU-Sim PTX: 3400000 instructions simulated : ctaid=(5,1,0) tid=(15,1,0)
GPGPU-Sim PTX: 3500000 instructions simulated : ctaid=(1,2,0) tid=(15,5,0)
GPGPU-Sim PTX: 3600000 instructions simulated : ctaid=(6,4,0) tid=(15,5,0)
GPGPU-Sim PTX: 3700000 instructions simulated : ctaid=(3,0,0) tid=(15,1,0)
GPGPU-Sim uArch: cycles simulated: 13500  inst.: 3697216 (ipc=273.9) sim_rate=336110 (inst/sec) elapsed = 0:0:00:11 / Sun Feb 28 21:43:10 2016
GPGPU-Sim PTX: 3800000 instructions simulated : ctaid=(7,2,0) tid=(15,3,0)
GPGPU-Sim PTX: 3900000 instructions simulated : ctaid=(1,3,0) tid=(15,7,0)
GPGPU-Sim PTX: 4000000 instructions simulated : ctaid=(1,1,0) tid=(15,7,0)
GPGPU-Sim PTX: 4100000 instructions simulated : ctaid=(1,1,0) tid=(15,1,0)
GPGPU-Sim uArch: cycles simulated: 15500  inst.: 4041600 (ipc=260.7) sim_rate=336800 (inst/sec) elapsed = 0:0:00:12 / Sun Feb 28 21:43:11 2016
GPGPU-Sim PTX: 4200000 instructions simulated : ctaid=(12,1,0) tid=(15,1,0)
GPGPU-Sim PTX: 4300000 instructions simulated : ctaid=(5,2,0) tid=(15,1,0)
GPGPU-Sim PTX: 4400000 instructions simulated : ctaid=(1,0,0) tid=(15,7,0)
GPGPU-Sim PTX: 4500000 instructions simulated : ctaid=(7,4,0) tid=(15,3,0)
GPGPU-Sim PTX: 4600000 instructions simulated : ctaid=(1,2,0) tid=(11,5,0)
GPGPU-Sim PTX: 4700000 instructions simulated : ctaid=(12,3,0) tid=(6,3,0)
GPGPU-Sim PTX: 4800000 instructions simulated : ctaid=(3,0,0) tid=(15,0,0)
GPGPU-Sim uArch: cycles simulated: 17000  inst.: 4736176 (ipc=278.6) sim_rate=364321 (inst/sec) elapsed = 0:0:00:13 / Sun Feb 28 21:43:12 2016
GPGPU-Sim PTX: 4900000 instructions simulated : ctaid=(7,3,0) tid=(15,0,0)
GPGPU-Sim PTX: 5000000 instructions simulated : ctaid=(4,0,0) tid=(15,0,0)
GPGPU-Sim PTX: 5100000 instructions simulated : ctaid=(2,0,0) tid=(15,4,0)
GPGPU-Sim PTX: 5200000 instructions simulated : ctaid=(2,4,0) tid=(15,6,0)
GPGPU-Sim uArch: cycles simulated: 17500  inst.: 5134000 (ipc=293.4) sim_rate=366714 (inst/sec) elapsed = 0:0:00:14 / Sun Feb 28 21:43:13 2016
GPGPU-Sim PTX: 5300000 instructions simulated : ctaid=(11,0,0) tid=(15,4,0)
GPGPU-Sim PTX: 5400000 instructions simulated : ctaid=(12,0,0) tid=(3,5,0)
GPGPU-Sim PTX: 5500000 instructions simulated : ctaid=(0,4,0) tid=(9,1,0)
GPGPU-Sim PTX: 5600000 instructions simulated : ctaid=(6,3,0) tid=(6,1,0)
GPGPU-Sim PTX: 5700000 instructions simulated : ctaid=(1,0,0) tid=(11,0,0)
GPGPU-Sim PTX: 5800000 instructions simulated : ctaid=(4,2,0) tid=(11,3,0)
GPGPU-Sim PTX: 5900000 instructions simulated : ctaid=(1,4,0) tid=(11,5,0)
GPGPU-Sim uArch: cycles simulated: 18500  inst.: 5820484 (ipc=314.6) sim_rate=388032 (inst/sec) elapsed = 0:0:00:15 / Sun Feb 28 21:43:14 2016
GPGPU-Sim PTX: 6000000 instructions simulated : ctaid=(4,0,0) tid=(11,1,0)
GPGPU-Sim PTX: 6100000 instructions simulated : ctaid=(12,2,0) tid=(11,7,0)
GPGPU-Sim PTX: 6200000 instructions simulated : ctaid=(6,4,0) tid=(11,7,0)
GPGPU-Sim PTX: 6300000 instructions simulated : ctaid=(4,3,0) tid=(11,3,0)
GPGPU-Sim uArch: cycles simulated: 20000  inst.: 6172900 (ipc=308.6) sim_rate=385806 (inst/sec) elapsed = 0:0:00:16 / Sun Feb 28 21:43:15 2016
GPGPU-Sim PTX: 6400000 instructions simulated : ctaid=(10,2,0) tid=(11,1,0)
GPGPU-Sim PTX: 6500000 instructions simulated : ctaid=(14,2,0) tid=(5,3,0)
GPGPU-Sim PTX: 6600000 instructions simulated : ctaid=(1,3,0) tid=(11,3,0)
GPGPU-Sim PTX: 6700000 instructions simulated : ctaid=(6,1,0) tid=(11,1,0)
GPGPU-Sim PTX: 6800000 instructions simulated : ctaid=(5,3,0) tid=(11,5,0)
GPGPU-Sim uArch: cycles simulated: 21500  inst.: 6650148 (ipc=309.3) sim_rate=391185 (inst/sec) elapsed = 0:0:00:17 / Sun Feb 28 21:43:16 2016
GPGPU-Sim PTX: 6900000 instructions simulated : ctaid=(4,3,0) tid=(11,3,0)
GPGPU-Sim PTX: 7000000 instructions simulated : ctaid=(14,1,0) tid=(11,3,0)
GPGPU-Sim PTX: 7100000 instructions simulated : ctaid=(4,3,0) tid=(11,7,0)
GPGPU-Sim uArch: cycles simulated: 22500  inst.: 6992740 (ipc=310.8) sim_rate=388485 (inst/sec) elapsed = 0:0:00:18 / Sun Feb 28 21:43:17 2016
GPGPU-Sim PTX: 7200000 instructions simulated : ctaid=(11,2,0) tid=(11,7,0)
GPGPU-Sim PTX: 7300000 instructions simulated : ctaid=(8,4,0) tid=(11,1,0)
GPGPU-Sim PTX: 7400000 instructions simulated : ctaid=(8,3,0) tid=(11,3,0)
GPGPU-Sim PTX: 7500000 instructions simulated : ctaid=(6,3,0) tid=(11,5,0)
GPGPU-Sim PTX: 7600000 instructions simulated : ctaid=(10,4,0) tid=(11,1,0)
GPGPU-Sim uArch: cycles simulated: 24000  inst.: 7475748 (ipc=311.5) sim_rate=393460 (inst/sec) elapsed = 0:0:00:19 / Sun Feb 28 21:43:18 2016
GPGPU-Sim PTX: 7700000 instructions simulated : ctaid=(5,2,0) tid=(11,5,0)
GPGPU-Sim PTX: 7800000 instructions simulated : ctaid=(4,2,0) tid=(11,5,0)
GPGPU-Sim PTX: 7900000 instructions simulated : ctaid=(10,3,0) tid=(11,3,0)
GPGPU-Sim PTX: 8000000 instructions simulated : ctaid=(14,0,0) tid=(11,5,0)
GPGPU-Sim PTX: 8100000 instructions simulated : ctaid=(12,1,0) tid=(11,1,0)
GPGPU-Sim uArch: cycles simulated: 25500  inst.: 7964932 (ipc=312.4) sim_rate=398246 (inst/sec) elapsed = 0:0:00:20 / Sun Feb 28 21:43:19 2016
GPGPU-Sim PTX: 8200000 instructions simulated : ctaid=(14,0,0) tid=(11,1,0)
GPGPU-Sim PTX: 8300000 instructions simulated : ctaid=(4,1,0) tid=(11,3,0)
GPGPU-Sim PTX: 8400000 instructions simulated : ctaid=(4,2,0) tid=(11,1,0)
GPGPU-Sim PTX: 8500000 instructions simulated : ctaid=(10,4,0) tid=(11,1,0)
GPGPU-Sim PTX: 8600000 instructions simulated : ctaid=(6,3,0) tid=(12,0,0)
GPGPU-Sim PTX: 8700000 instructions simulated : ctaid=(2,0,0) tid=(6,7,0)
GPGPU-Sim uArch: cycles simulated: 26500  inst.: 8535751 (ipc=322.1) sim_rate=406464 (inst/sec) elapsed = 0:0:00:21 / Sun Feb 28 21:43:20 2016
GPGPU-Sim PTX: 8800000 instructions simulated : ctaid=(15,0,0) tid=(15,5,0)
GPGPU-Sim PTX: 8900000 instructions simulated : ctaid=(3,3,0) tid=(11,3,0)
GPGPU-Sim PTX: 9000000 instructions simulated : ctaid=(1,0,0) tid=(0,7,0)
GPGPU-Sim PTX: 9100000 instructions simulated : ctaid=(5,3,0) tid=(3,2,0)
GPGPU-Sim PTX: 9200000 instructions simulated : ctaid=(7,3,0) tid=(9,7,0)
GPGPU-Sim PTX: 9300000 instructions simulated : ctaid=(3,0,0) tid=(3,3,0)
GPGPU-Sim PTX: 9400000 instructions simulated : ctaid=(11,1,0) tid=(12,6,0)
GPGPU-Sim PTX: 9500000 instructions simulated : ctaid=(5,2,0) tid=(8,7,0)
GPGPU-Sim uArch: cycles simulated: 27500  inst.: 9337111 (ipc=339.5) sim_rate=424414 (inst/sec) elapsed = 0:0:00:22 / Sun Feb 28 21:43:21 2016
GPGPU-Sim PTX: 9600000 instructions simulated : ctaid=(2,2,0) tid=(7,1,0)
GPGPU-Sim PTX: 9700000 instructions simulated : ctaid=(6,4,0) tid=(13,4,0)
GPGPU-Sim PTX: 9800000 instructions simulated : ctaid=(10,1,0) tid=(14,2,0)
GPGPU-Sim PTX: 9900000 instructions simulated : ctaid=(9,3,0) tid=(7,3,0)
GPGPU-Sim PTX: 10000000 instructions simulated : ctaid=(9,4,0) tid=(7,2,0)
GPGPU-Sim PTX: 10100000 instructions simulated : ctaid=(4,3,0) tid=(10,1,0)
GPGPU-Sim uArch: cycles simulated: 28500  inst.: 9831157 (ipc=345.0) sim_rate=427441 (inst/sec) elapsed = 0:0:00:23 / Sun Feb 28 21:43:22 2016
GPGPU-Sim PTX: 10200000 instructions simulated : ctaid=(7,1,0) tid=(3,0,0)
GPGPU-Sim PTX: 10300000 instructions simulated : ctaid=(8,3,0) tid=(15,3,0)
GPGPU-Sim PTX: 10400000 instructions simulated : ctaid=(6,0,0) tid=(10,6,0)
GPGPU-Sim uArch: Shader 9 finished CTA #3 (29747,0), 4 CTAs running
GPGPU-Sim uArch: core:  9, cta: 3 initialized @(29748,0)
GPGPU-Sim uArch: Shader 9 finished CTA #4 (29808,0), 4 CTAs running
GPGPU-Sim uArch: core:  9, cta: 4 initialized @(29809,0)
GPGPU-Sim uArch: Shader 0 finished CTA #1 (29812,0), 4 CTAs running
GPGPU-Sim uArch: core:  0, cta: 1 initialized @(29813,0)
GPGPU-Sim uArch: Shader 14 finished CTA #0 (29826,0), 4 CTAs running
GPGPU-Sim uArch: core: 14, cta: 0 initialized @(29827,0)
GPGPU-Sim uArch: Shader 8 finished CTA #3 (29828,0), 4 CTAs running
GPGPU-Sim uArch: core:  8, cta: 3 initialized @(29829,0)
GPGPU-Sim uArch: Shader 0 finished CTA #0 (29834,0), 4 CTAs running
GPGPU-Sim uArch: core:  0, cta: 0 initialized @(29835,0)
GPGPU-Sim uArch: Shader 2 finished CTA #0 (29874,0), 4 CTAs running
GPGPU-Sim uArch: core:  2, cta: 0 initialized @(29875,0)
GPGPU-Sim uArch: Shader 0 finished CTA #2 (29876,0), 4 CTAs running
GPGPU-Sim uArch: core:  0, cta: 2 initialized @(29877,0)
GPGPU-Sim uArch: Shader 2 finished CTA #1 (29880,0), 4 CTAs running
GPGPU-Sim uArch: Shader 8 finished CTA #2 (29880,0), 4 CTAs running
GPGPU-Sim uArch: core:  2, cta: 1 initialized @(29881,0)
GPGPU-Sim uArch: core:  8, cta: 2 initialized @(29881,0)
GPGPU-Sim uArch: Shader 6 finished CTA #3 (29882,0), 4 CTAs running
GPGPU-Sim uArch: core:  6, cta: 3 initialized @(29883,0)
GPGPU-Sim uArch: Shader 0 finished CTA #4 (29887,0), 4 CTAs running
GPGPU-Sim uArch: core:  0, cta: 4 initialized @(29888,0)
GPGPU-Sim uArch: Shader 1 finished CTA #1 (29892,0), 4 CTAs running
GPGPU-Sim uArch: core:  1, cta: 1 initialized @(29893,0)
GPGPU-Sim uArch: Shader 6 finished CTA #2 (29911,0), 4 CTAs running
GPGPU-Sim uArch: core:  6, cta: 2 initialized @(29912,0)
GPGPU-Sim uArch: Shader 8 finished CTA #4 (29916,0), 4 CTAs running
GPGPU-Sim uArch: core:  8, cta: 4 initialized @(29917,0)
GPGPU-Sim uArch: Shader 2 finished CTA #2 (29922,0), 4 CTAs running
GPGPU-Sim uArch: core:  2, cta: 2 initialized @(29923,0)
GPGPU-Sim uArch: Shader 3 finished CTA #0 (29924,0), 4 CTAs running
GPGPU-Sim uArch: core:  3, cta: 0 initialized @(29925,0)
GPGPU-Sim uArch: Shader 2 finished CTA #4 (29930,0), 4 CTAs running
GPGPU-Sim uArch: core:  2, cta: 4 initialized @(29931,0)
GPGPU-Sim uArch: Shader 6 finished CTA #4 (29934,0), 4 CTAs running
GPGPU-Sim uArch: core:  6, cta: 4 initialized @(29935,0)
GPGPU-Sim uArch: Shader 1 finished CTA #0 (29936,0), 4 CTAs running
GPGPU-Sim uArch: core:  1, cta: 0 initialized @(29937,0)
GPGPU-Sim uArch: Shader 3 finished CTA #1 (29938,0), 4 CTAs running
GPGPU-Sim uArch: core:  3, cta: 1 initialized @(29939,0)
GPGPU-Sim uArch: Shader 2 finished CTA #3 (29946,0), 4 CTAs running
GPGPU-Sim uArch: core:  2, cta: 3 initialized @(29947,0)
GPGPU-Sim uArch: Shader 1 finished CTA #2 (29958,0), 4 CTAs running
GPGPU-Sim uArch: core:  1, cta: 2 initialized @(29959,0)
GPGPU-Sim uArch: Shader 5 finished CTA #2 (29961,0), 4 CTAs running
GPGPU-Sim uArch: core:  5, cta: 2 initialized @(29962,0)
GPGPU-Sim uArch: Shader 1 finished CTA #4 (29966,0), 4 CTAs running
GPGPU-Sim uArch: core:  1, cta: 4 initialized @(29967,0)
GPGPU-Sim uArch: Shader 4 finished CTA #1 (29968,0), 4 CTAs running
GPGPU-Sim uArch: core:  4, cta: 1 initialized @(29969,0)
GPGPU-Sim uArch: Shader 0 finished CTA #3 (29975,0), 4 CTAs running
GPGPU-Sim uArch: core:  0, cta: 3 initialized @(29976,0)
GPGPU-Sim uArch: Shader 5 finished CTA #3 (29976,0), 4 CTAs running
GPGPU-Sim uArch: core:  5, cta: 3 initialized @(29977,0)
GPGPU-Sim PTX: 10500000 instructions simulated : ctaid=(11,0,0) tid=(12,0,0)
GPGPU-Sim uArch: Shader 4 finished CTA #2 (29988,0), 4 CTAs running
GPGPU-Sim uArch: core:  4, cta: 2 initialized @(29989,0)
GPGPU-Sim uArch: cycles simulated: 30000  inst.: 10229679 (ipc=341.0) sim_rate=426236 (inst/sec) elapsed = 0:0:00:24 / Sun Feb 28 21:43:23 2016
GPGPU-Sim uArch: Shader 10 finished CTA #4 (30006,0), 4 CTAs running
GPGPU-Sim uArch: core: 10, cta: 4 initialized @(30007,0)
GPGPU-Sim uArch: Shader 4 finished CTA #3 (30012,0), 4 CTAs running
GPGPU-Sim uArch: core:  4, cta: 3 initialized @(30013,0)
GPGPU-Sim uArch: Shader 7 finished CTA #3 (30026,0), 4 CTAs running
GPGPU-Sim uArch: core:  7, cta: 3 initialized @(30027,0)
GPGPU-Sim uArch: Shader 3 finished CTA #2 (30036,0), 4 CTAs running
GPGPU-Sim uArch: core:  3, cta: 2 initialized @(30037,0)
GPGPU-Sim uArch: Shader 4 finished CTA #4 (30037,0), 4 CTAs running
GPGPU-Sim uArch: core:  4, cta: 4 initialized @(30038,0)
GPGPU-Sim uArch: Shader 7 finished CTA #4 (30044,0), 4 CTAs running
GPGPU-Sim uArch: core:  7, cta: 4 initialized @(30045,0)
GPGPU-Sim uArch: Shader 3 finished CTA #4 (30066,0), 4 CTAs running
GPGPU-Sim uArch: core:  3, cta: 4 initialized @(30067,0)
GPGPU-Sim uArch: Shader 5 finished CTA #4 (30087,0), 4 CTAs running
GPGPU-Sim uArch: core:  5, cta: 4 initialized @(30088,0)
GPGPU-Sim uArch: Shader 3 finished CTA #3 (30100,0), 4 CTAs running
GPGPU-Sim uArch: core:  3, cta: 3 initialized @(30101,0)
GPGPU-Sim uArch: Shader 1 finished CTA #3 (30119,0), 4 CTAs running
GPGPU-Sim uArch: core:  1, cta: 3 initialized @(30120,0)
GPGPU-Sim PTX: 10600000 instructions simulated : ctaid=(13,4,0) tid=(13,2,0)
GPGPU-Sim uArch: cycles simulated: 30500  inst.: 10386530 (ipc=340.5) sim_rate=415461 (inst/sec) elapsed = 0:0:00:25 / Sun Feb 28 21:43:24 2016
GPGPU-Sim PTX: 10700000 instructions simulated : ctaid=(9,5,0) tid=(8,0,0)
GPGPU-Sim PTX: 10800000 instructions simulated : ctaid=(10,1,0) tid=(9,5,0)
GPGPU-Sim PTX: 10900000 instructions simulated : ctaid=(4,5,0) tid=(11,1,0)
GPGPU-Sim PTX: 11000000 instructions simulated : ctaid=(8,2,0) tid=(3,4,0)
GPGPU-Sim uArch: cycles simulated: 32000  inst.: 10762690 (ipc=336.3) sim_rate=413949 (inst/sec) elapsed = 0:0:00:26 / Sun Feb 28 21:43:25 2016
GPGPU-Sim PTX: 11100000 instructions simulated : ctaid=(10,5,0) tid=(12,1,0)
GPGPU-Sim PTX: 11200000 instructions simulated : ctaid=(9,3,0) tid=(11,3,0)
GPGPU-Sim PTX: 11300000 instructions simulated : ctaid=(6,3,0) tid=(1,3,0)
GPGPU-Sim PTX: 11400000 instructions simulated : ctaid=(6,5,0) tid=(12,1,0)
GPGPU-Sim uArch: cycles simulated: 33500  inst.: 11167436 (ipc=333.4) sim_rate=413608 (inst/sec) elapsed = 0:0:00:27 / Sun Feb 28 21:43:26 2016
GPGPU-Sim PTX: 11500000 instructions simulated : ctaid=(2,6,0) tid=(5,3,0)
GPGPU-Sim PTX: 11600000 instructions simulated : ctaid=(9,5,0) tid=(6,6,0)
GPGPU-Sim PTX: 11700000 instructions simulated : ctaid=(12,0,0) tid=(4,5,0)
GPGPU-Sim PTX: 11800000 instructions simulated : ctaid=(14,4,0) tid=(5,2,0)
GPGPU-Sim PTX: 11900000 instructions simulated : ctaid=(14,6,0) tid=(15,7,0)
GPGPU-Sim uArch: cycles simulated: 35000  inst.: 11680580 (ipc=333.7) sim_rate=417163 (inst/sec) elapsed = 0:0:00:28 / Sun Feb 28 21:43:27 2016
GPGPU-Sim PTX: 12000000 instructions simulated : ctaid=(0,7,0) tid=(0,0,0)
GPGPU-Sim PTX: 12100000 instructions simulated : ctaid=(1,5,0) tid=(7,0,0)
GPGPU-Sim PTX: 12200000 instructions simulated : ctaid=(3,5,0) tid=(6,1,0)
GPGPU-Sim PTX: 12300000 instructions simulated : ctaid=(0,7,0) tid=(1,6,0)
GPGPU-Sim PTX: 12400000 instructions simulated : ctaid=(13,6,0) tid=(10,3,0)
GPGPU-Sim uArch: cycles simulated: 36000  inst.: 12116540 (ipc=336.6) sim_rate=417811 (inst/sec) elapsed = 0:0:00:29 / Sun Feb 28 21:43:28 2016
GPGPU-Sim PTX: 12500000 instructions simulated : ctaid=(11,5,0) tid=(14,4,0)
GPGPU-Sim PTX: 12600000 instructions simulated : ctaid=(7,5,0) tid=(15,7,0)
GPGPU-Sim uArch: Shader 14 finished CTA #2 (36361,0), 4 CTAs running
GPGPU-Sim uArch: core: 14, cta: 2 initialized @(36362,0)
GPGPU-Sim PTX: 12700000 instructions simulated : ctaid=(7,0,0) tid=(2,7,0)
GPGPU-Sim PTX: 12800000 instructions simulated : ctaid=(2,5,0) tid=(11,6,0)
GPGPU-Sim PTX: 12900000 instructions simulated : ctaid=(0,6,0) tid=(15,7,0)
GPGPU-Sim PTX: 13000000 instructions simulated : ctaid=(9,1,0) tid=(3,7,0)
GPGPU-Sim uArch: cycles simulated: 37000  inst.: 12673311 (ipc=342.5) sim_rate=422443 (inst/sec) elapsed = 0:0:00:30 / Sun Feb 28 21:43:29 2016
GPGPU-Sim PTX: 13100000 instructions simulated : ctaid=(10,6,0) tid=(3,3,0)
GPGPU-Sim uArch: Shader 7 finished CTA #2 (37179,0), 4 CTAs running
GPGPU-Sim uArch: core:  7, cta: 2 initialized @(37180,0)
GPGPU-Sim PTX: 13200000 instructions simulated : ctaid=(14,4,0) tid=(14,4,0)
GPGPU-Sim PTX: 13300000 instructions simulated : ctaid=(2,5,0) tid=(5,7,0)
GPGPU-Sim PTX: 13400000 instructions simulated : ctaid=(9,2,0) tid=(2,1,0)
GPGPU-Sim PTX: 13500000 instructions simulated : ctaid=(6,3,0) tid=(7,6,0)
GPGPU-Sim uArch: cycles simulated: 38000  inst.: 13188598 (ipc=347.1) sim_rate=425438 (inst/sec) elapsed = 0:0:00:31 / Sun Feb 28 21:43:30 2016
GPGPU-Sim PTX: 13600000 instructions simulated : ctaid=(0,6,0) tid=(14,1,0)
GPGPU-Sim PTX: 13700000 instructions simulated : ctaid=(1,5,0) tid=(15,7,0)
GPGPU-Sim PTX: 13800000 instructions simulated : ctaid=(9,5,0) tid=(4,5,0)
GPGPU-Sim PTX: 13900000 instructions simulated : ctaid=(8,6,0) tid=(11,4,0)
GPGPU-Sim PTX: 14000000 instructions simulated : ctaid=(8,1,0) tid=(5,5,0)
GPGPU-Sim uArch: cycles simulated: 39000  inst.: 13649620 (ipc=350.0) sim_rate=426550 (inst/sec) elapsed = 0:0:00:32 / Sun Feb 28 21:43:31 2016
GPGPU-Sim PTX: 14100000 instructions simulated : ctaid=(8,3,0) tid=(2,2,0)
GPGPU-Sim PTX: 14200000 instructions simulated : ctaid=(0,5,0) tid=(0,1,0)
GPGPU-Sim PTX: 14300000 instructions simulated : ctaid=(7,4,0) tid=(15,6,0)
GPGPU-Sim PTX: 14400000 instructions simulated : ctaid=(15,5,0) tid=(13,7,0)
GPGPU-Sim PTX: 14500000 instructions simulated : ctaid=(8,4,0) tid=(0,6,0)
GPGPU-Sim uArch: cycles simulated: 40000  inst.: 14141269 (ipc=353.5) sim_rate=428523 (inst/sec) elapsed = 0:0:00:33 / Sun Feb 28 21:43:32 2016
GPGPU-Sim PTX: 14600000 instructions simulated : ctaid=(13,5,0) tid=(6,0,0)
GPGPU-Sim PTX: 14700000 instructions simulated : ctaid=(1,6,0) tid=(11,4,0)
GPGPU-Sim PTX: 14800000 instructions simulated : ctaid=(9,5,0) tid=(1,5,0)
GPGPU-Sim PTX: 14900000 instructions simulated : ctaid=(2,5,0) tid=(0,6,0)
GPGPU-Sim PTX: 15000000 instructions simulated : ctaid=(9,1,0) tid=(14,4,0)
GPGPU-Sim PTX: 15100000 instructions simulated : ctaid=(6,1,0) tid=(10,7,0)
GPGPU-Sim uArch: cycles simulated: 41000  inst.: 14717597 (ipc=359.0) sim_rate=432870 (inst/sec) elapsed = 0:0:00:34 / Sun Feb 28 21:43:33 2016
GPGPU-Sim PTX: 15200000 instructions simulated : ctaid=(9,1,0) tid=(13,1,0)
GPGPU-Sim PTX: 15300000 instructions simulated : ctaid=(8,2,0) tid=(5,2,0)
GPGPU-Sim PTX: 15400000 instructions simulated : ctaid=(3,6,0) tid=(6,2,0)
GPGPU-Sim PTX: 15500000 instructions simulated : ctaid=(12,6,0) tid=(12,6,0)
GPGPU-Sim PTX: 15600000 instructions simulated : ctaid=(9,5,0) tid=(3,3,0)
GPGPU-Sim uArch: cycles simulated: 42000  inst.: 15270363 (ipc=363.6) sim_rate=436296 (inst/sec) elapsed = 0:0:00:35 / Sun Feb 28 21:43:34 2016
GPGPU-Sim PTX: 15700000 instructions simulated : ctaid=(8,2,0) tid=(4,4,0)
GPGPU-Sim uArch: Shader 14 finished CTA #3 (42124,0), 4 CTAs running
GPGPU-Sim uArch: core: 14, cta: 3 initialized @(42125,0)
GPGPU-Sim PTX: 15800000 instructions simulated : ctaid=(7,1,0) tid=(1,2,0)
GPGPU-Sim PTX: 15900000 instructions simulated : ctaid=(0,6,0) tid=(6,7,0)
GPGPU-Sim PTX: 16000000 instructions simulated : ctaid=(9,4,0) tid=(3,1,0)
GPGPU-Sim PTX: 16100000 instructions simulated : ctaid=(11,1,0) tid=(14,1,0)
GPGPU-Sim uArch: cycles simulated: 43000  inst.: 15732521 (ipc=365.9) sim_rate=437014 (inst/sec) elapsed = 0:0:00:36 / Sun Feb 28 21:43:35 2016
GPGPU-Sim PTX: 16200000 instructions simulated : ctaid=(11,0,0) tid=(1,3,0)
GPGPU-Sim uArch: Shader 13 finished CTA #2 (43090,0), 4 CTAs running
GPGPU-Sim uArch: core: 13, cta: 2 initialized @(43091,0)
GPGPU-Sim PTX: 16300000 instructions simulated : ctaid=(0,6,0) tid=(0,7,0)
GPGPU-Sim uArch: Shader 6 finished CTA #1 (43488,0), 4 CTAs running
GPGPU-Sim uArch: core:  6, cta: 1 initialized @(43489,0)
GPGPU-Sim PTX: 16400000 instructions simulated : ctaid=(6,6,0) tid=(3,6,0)
GPGPU-Sim PTX: 16500000 instructions simulated : ctaid=(11,6,0) tid=(15,0,0)
GPGPU-Sim PTX: 16600000 instructions simulated : ctaid=(11,4,0) tid=(9,0,0)
GPGPU-Sim uArch: cycles simulated: 44000  inst.: 16206402 (ipc=368.3) sim_rate=438010 (inst/sec) elapsed = 0:0:00:37 / Sun Feb 28 21:43:36 2016
GPGPU-Sim PTX: 16700000 instructions simulated : ctaid=(10,0,0) tid=(7,5,0)
GPGPU-Sim PTX: 16800000 instructions simulated : ctaid=(8,5,0) tid=(13,3,0)
GPGPU-Sim PTX: 16900000 instructions simulated : ctaid=(12,5,0) tid=(5,1,0)
GPGPU-Sim PTX: 17000000 instructions simulated : ctaid=(12,4,0) tid=(5,0,0)
GPGPU-Sim uArch: Shader 5 finished CTA #1 (44783,0), 4 CTAs running
GPGPU-Sim uArch: core:  5, cta: 1 initialized @(44784,0)
GPGPU-Sim PTX: 17100000 instructions simulated : ctaid=(12,4,0) tid=(2,0,0)
GPGPU-Sim uArch: cycles simulated: 45000  inst.: 16659913 (ipc=370.2) sim_rate=438418 (inst/sec) elapsed = 0:0:00:38 / Sun Feb 28 21:43:37 2016
GPGPU-Sim PTX: 17200000 instructions simulated : ctaid=(3,7,0) tid=(9,1,0)
GPGPU-Sim uArch: Shader 13 finished CTA #0 (45283,0), 4 CTAs running
GPGPU-Sim uArch: core: 13, cta: 0 initialized @(45284,0)
GPGPU-Sim uArch: Shader 4 finished CTA #0 (45284,0), 4 CTAs running
GPGPU-Sim uArch: core:  4, cta: 0 initialized @(45285,0)
GPGPU-Sim PTX: 17300000 instructions simulated : ctaid=(13,6,0) tid=(8,5,0)
GPGPU-Sim uArch: Shader 13 finished CTA #1 (45553,0), 4 CTAs running
GPGPU-Sim uArch: core: 13, cta: 1 initialized @(45554,0)
GPGPU-Sim PTX: 17400000 instructions simulated : ctaid=(12,1,0) tid=(0,0,0)
GPGPU-Sim uArch: Shader 13 finished CTA #3 (45784,0), 4 CTAs running
GPGPU-Sim uArch: core: 13, cta: 3 initialized @(45785,0)
GPGPU-Sim PTX: 17500000 instructions simulated : ctaid=(6,4,0) tid=(14,4,0)
GPGPU-Sim PTX: 17600000 instructions simulated : ctaid=(1,6,0) tid=(7,4,0)
GPGPU-Sim uArch: cycles simulated: 46000  inst.: 17133537 (ipc=372.5) sim_rate=439321 (inst/sec) elapsed = 0:0:00:39 / Sun Feb 28 21:43:38 2016
GPGPU-Sim PTX: 17700000 instructions simulated : ctaid=(1,6,0) tid=(4,0,0)
GPGPU-Sim uArch: Shader 10 finished CTA #3 (46249,0), 4 CTAs running
GPGPU-Sim uArch: core: 10, cta: 3 initialized @(46250,0)
GPGPU-Sim PTX: 17800000 instructions simulated : ctaid=(14,5,0) tid=(14,6,0)
GPGPU-Sim uArch: Shader 12 finished CTA #3 (46512,0), 4 CTAs running
GPGPU-Sim uArch: core: 12, cta: 3 initialized @(46513,0)
GPGPU-Sim uArch: Shader 14 finished CTA #0 (46613,0), 4 CTAs running
GPGPU-Sim uArch: core: 14, cta: 0 initialized @(46614,0)
GPGPU-Sim uArch: Shader 14 finished CTA #1 (46647,0), 4 CTAs running
GPGPU-Sim uArch: core: 14, cta: 1 initialized @(46648,0)
GPGPU-Sim PTX: 17900000 instructions simulated : ctaid=(11,5,0) tid=(3,0,0)
GPGPU-Sim PTX: 18000000 instructions simulated : ctaid=(6,7,0) tid=(12,6,0)
GPGPU-Sim uArch: cycles simulated: 47000  inst.: 17577922 (ipc=374.0) sim_rate=439448 (inst/sec) elapsed = 0:0:00:40 / Sun Feb 28 21:43:39 2016
GPGPU-Sim PTX: 18100000 instructions simulated : ctaid=(12,5,0) tid=(3,0,0)
GPGPU-Sim PTX: 18200000 instructions simulated : ctaid=(4,5,0) tid=(8,1,0)
GPGPU-Sim uArch: Shader 11 finished CTA #4 (47358,0), 4 CTAs running
GPGPU-Sim uArch: core: 11, cta: 4 initialized @(47359,0)
GPGPU-Sim PTX: 18300000 instructions simulated : ctaid=(14,7,0) tid=(6,2,0)
GPGPU-Sim uArch: Shader 9 finished CTA #3 (47510,0), 4 CTAs running
GPGPU-Sim uArch: core:  9, cta: 3 initialized @(47511,0)
GPGPU-Sim PTX: 18400000 instructions simulated : ctaid=(15,5,0) tid=(2,4,0)
GPGPU-Sim uArch: Shader 9 finished CTA #4 (47663,0), 4 CTAs running
GPGPU-Sim uArch: core:  9, cta: 4 initialized @(47664,0)
GPGPU-Sim PTX: 18500000 instructions simulated : ctaid=(15,5,0) tid=(2,3,0)
GPGPU-Sim uArch: Shader 7 finished CTA #3 (47954,0), 4 CTAs running
GPGPU-Sim uArch: core:  7, cta: 3 initialized @(47955,0)
GPGPU-Sim PTX: 18600000 instructions simulated : ctaid=(7,6,0) tid=(12,1,0)
GPGPU-Sim uArch: cycles simulated: 48000  inst.: 18117166 (ipc=377.4) sim_rate=441882 (inst/sec) elapsed = 0:0:00:41 / Sun Feb 28 21:43:40 2016
GPGPU-Sim uArch: Shader 7 finished CTA #4 (48056,0), 4 CTAs running
GPGPU-Sim uArch: core:  7, cta: 4 initialized @(48057,0)
GPGPU-Sim uArch: Shader 8 finished CTA #2 (48113,0), 4 CTAs running
GPGPU-Sim uArch: core:  8, cta: 2 initialized @(48114,0)
GPGPU-Sim uArch: Shader 8 finished CTA #3 (48127,0), 4 CTAs running
GPGPU-Sim uArch: core:  8, cta: 3 initialized @(48128,0)
GPGPU-Sim PTX: 18700000 instructions simulated : ctaid=(2,6,0) tid=(9,2,0)
GPGPU-Sim PTX: 18800000 instructions simulated : ctaid=(15,7,0) tid=(14,4,0)
[...]
max_icnt2mem_latency = 1224 
max_icnt2sh_latency = 148299 
mrq_lat_table:29458 	3258 	2979 	4739 	13692 	14757 	13299 	7481 	1533 	88 	3 	0 	0 	0 	0 	0 	0 	0 	0 	0 	0 	0 	0 	0 	0 	0 	0 	0 	0 	0 	0 	0 	
dq_lat_table:0 	0 	0 	0 	0 	0 	0 	0 	0 	0 	0 	0 	0 	0 	0 	0 	0 	0 	0 	0 	0 	0 	0 	0 	0 	0 	0 	0 	0 	0 	0 	0 	
mf_lat_table:0 	0 	0 	0 	0 	0 	0 	22781 	27423 	12392 	1527 	0 	0 	0 	0 	0 	0 	0 	0 	0 	0 	0 	0 	0 	0 	0 	0 	0 	0 	0 	0 	0 	
icnt2mem_lat_table:0 	0 	0 	20746 	13046 	13159 	26016 	4334 	4417 	727 	44 	0 	0 	0 	0 	0 	0 	0 	0 	0 	0 	0 	0 	0 	
icnt2sh_lat_table:0 	0 	0 	6006 	4006 	1307 	54 	0 	0 	186 	497 	1395 	3068 	2654 	4387 	9943 	22528 	8092 	0 	0 	0 	0 	0 	0 	
mf_lat_pw_table:0 	0 	0 	0 	0 	0 	0 	114 	127 	30 	3 	0 	0 	0 	0 	0 	0 	0 	0 	0 	0 	0 	0 	0 	0 	0 	0 	0 	0 	0 	0 	0 	
maximum concurrent accesses to same row:
dram[0]:        62        62        62        62        54        54        44        24        42        38        34        36        20        20        22        20 
dram[1]:        62        62        61        58        52        44        42        36        42        38        32        30        20        18        23        18 
dram[2]:        62        64        62        63        56        60        42        38        46        44        36        38        20        24        26        28 
dram[3]:        62        60        63        58        24        60        42        34        44        44        36        32        22        21        24        24 
dram[4]:        62        64        64        60        54        50        38        42        46        48        42        38        26        18        20        23 
dram[5]:        58        64        64        57        34        46        34        34        34        38        30        32        21        18        18        16 
maximum service time to same row:
dram[0]:     15296      9158     18322     18379     15061     16344     14190     14097     19965     19347     19406     22159     20766     20781     22690     20863 
dram[1]:     12712      9959     18609     18199     15991     14682     16878     19330     19756     19224     19241     19779     20598     20551     22223     20592 
dram[2]:     12353     10800     18241     18483     16152     15050     14338     14464     19956     19634     19497     20048     21301     19990     20915     20930 
dram[3]:     11347     10227     18205     18286     13493     15513     14520     14059     19829     19202     19129     19895     19679     19711     20728     20737 
dram[4]:     10667     14906     18178     18222     16167     15712     14753     19349     19563     19828     19851     19906     20316     19997     20897     20584 
dram[5]:     11019     15385     18090     18409     16329     16101     14377     13838     19538     19349     19390     19675     20691     19613     20732     19584 
average row accesses per activate:
dram[0]:  4.806818  5.071896  4.427778  5.445206  4.149758  4.142857  3.949020  3.827839  3.828571  4.116000  3.850575  3.591503  3.853933  3.949020  4.676471  4.305699 
dram[1]:  3.965065  4.710227  5.160256  4.872727  3.844156  4.289340  3.519868  4.027237  3.589226  3.812950  3.488673  3.546624  3.867383  4.083665  4.352632  4.078432 
dram[2]:  4.811429  4.593750  5.768212  4.850299  4.390863  4.512691  3.739130  4.623853  4.065637  3.714286  3.898246  3.783088  4.465306  4.052000  5.192307  4.776536 
dram[3]:  4.711111  4.221675  4.763637  5.436242  4.118182  3.790123  3.821168  3.586806  3.992509  3.727915  3.533333  3.506494  4.026022  3.919847  4.436464  4.024155 
dram[4]:  4.482234  5.540146  5.588653  4.895954  4.889535  3.960177  3.743396  3.829181  4.000000  4.213439  4.070866  3.690323  4.047059  4.377049  4.654054  4.309645 
dram[5]:  4.342105  5.277420  5.582781  4.854546  4.312500  4.366667  3.243161  4.027668  3.947955  3.775439  3.518518  3.778547  4.124031  4.491597  4.262136  4.047619 
average row locality = 91287/22046 = 4.140751
number of total memory accesses made:
dram[0]:         0         0         0         0         0         0         0         0         0         0         0         0         0         0         0         0 
dram[1]:         0         0         0         0         0         0         0         0         0         0         0         0         0         0         0         0 
dram[2]:         0         0         0         0         0         0         0         0         0         0         0         0         0         0         0         0 
dram[3]:         0         0         0         0         0         0         0         0         0         0         0         0         0         0         0         0 
dram[4]:         0         0         0         0         0         0         0         0         0         0         0         0         0         0         0         0 
dram[5]:         0         0         0         0         0         0         0         0         0         0         0         0         0         0         0         0 
total accesses: 0
min_bank_accesses = 0!
min_chip_accesses = 0!
number of total read accesses:
dram[0]:       393       368       371       369       397       405       454       482       492       470       465       512       466       461       373       389 
dram[1]:       439       387       377       377       416       388       479       473       492       488       502       504       489       466       391       391 
dram[2]:       395       411       404       368       408       410       509       454       484       505       510       474       504       464       375       393 
dram[3]:       398       393       357       376       426       428       465       463       485       481       479       489       496       470       372       385 
dram[4]:       410       356       366       387       397       429       451       493       487       493       470       529       474       484       399       399 
dram[5]:       392       388       393       375       425       434       489       465       491       497       524       497       491       491       413       400 
total reads: 42146
bank skew: 529/356 = 1.49
chip skew: 7165/6867 = 1.04
number of total write accesses:
dram[0]:       453       408       426       426       462       465       553       563       580       559       540       587       563       546       422       442 
dram[1]:       469       442       428       427       472       457       584       562       574       572       576       599       590       559       436       441 
dram[2]:       447       471       467       442       457       479       609       554       569       587       601       555       590       549       435       462 
dram[3]:       450       464       429       434       480       493       582       570       581       574       581       591       587       557       431       448 
dram[4]:       473       403       422       460       444       466       541       583       581       573       564       615       558       584       462       450 
dram[5]:       433       430       450       426       472       483       578       554       571       579       616       595       573       578       465       450 
total reads: 49141
bank skew: 616/403 = 1.53
chip skew: 8274/7995 = 1.03
average mf latency per bank:
dram[0]:        282       267       300       286       301       294       306       283       278       289       270       276       278       292       312       305
dram[1]:        261       241       256       260       255       259       251       251       236       242       239       229       239       250       269       275
dram[2]:        274       265       285       299       304       301       271       290       285       258       257       266       272       264       323       307
dram[3]:        233       249       269       261       241       254       249       239       241       228       226       233       234       235       259       250
dram[4]:        253       264       307       298       297       298       291       275       274       268       269       260       257       268       290       303
dram[5]:        243       244       269       273       255       264       241       247       247       252       235       238       240       255       258       266
maximum mf latency per bank:
dram[0]:       1389      1423      1676      1491      1573      1515      1478      1491      1354      1305      1300      1163      1424      1291      1388      1258
dram[1]:       1469      1493      1518      1523      1648      1538      1425      1073      1033       997      1025      1007       949       965       997      1224
dram[2]:       1316      1333      1735      1723      1548      1584      1584      1523      1432      1494      1290      1312      1328      1442      1382      1319
dram[3]:       1138      1398      1537      1697      1341      1619      1206      1455      1075      1072       991      1106      1029      1192      1153      1087
dram[4]:       1393      1510      1827      1821      1698      1698      1689      1761      1615      1426      1322      1302      1365      1197      1231      1358
dram[5]:       1374      1347      1776      1558      1604      1693      1447      1507      1206      1086      1221      1036      1117      1141      1102      1070

Number of Memory Banks Accessed per Memory Operation per Warp (from 0):
0	0	0	0	0	0	0	0	0	0	0	0	0	0	0	0	0	0	0	0	0	0	0	0	0	0	0	0	0	0	0	0	0	0	0	0	0	0	0	0	0	0	0	0	0	0	0	0	0	0	0	0	0	0	0	0	0	0	0	0	0	0	0	0	0	0	0	0	0	0	0	0	0	0	0	0	0	0	0	0	0	0	0	0	0	0	0	0	0	0	0	0	0	0	0	0	
Average # of Memory Banks Accessed per Memory Operation per Warp=-nan

position of mrq chosen
0	0	0	0	0	0	0	0	0	0	0	0	0	0	0	0	

average position of mrq chosen = -nan
Memory Partition 0: 
Cache L2_bank_000:
MSHR contents

Cache L2_bank_001:
MSHR contents

In Dram Latency Queue (total = 0): 
DRAM[0]: 16 bks, busW=4 BL=8 CL=12, tRRD=2 tCCD=6, tRCD=12 tRAS=28 tRP=12 tRC=40
n_cmd=195755 n_nop=159440 n_act=3582 n_pre=3566 n_req=14862 n_rd=13734 n_write=15433 bw_util=0.298
n_activity=109832 dram_eff=0.5311
bk0: 786a 165919i bk1: 736a 169836i bk2: 742a 166275i bk3: 738a 167494i bk4: 794a 162049i bk5: 810a 162115i bk6: 908a 155070i bk7: 964a 153610i bk8: 984a 155962i bk9: 940a 155011i bk10: 930a 156159i bk11: 1024a 151411i bk12: 932a 154054i bk13: 922a 153722i bk14: 746a 159905i bk15: 778a 159674i 
dram_util_bins: 0 0 0 0 0 0 0 0 0 0
dram_eff_bins: 0 0 0 0 0 0 0 0 0 0
mrqq: max=16 avg=4.61672
Memory Partition 1: 
Cache L2_bank_002:
MSHR contents

Cache L2_bank_003:
MSHR contents

In Dram Latency Queue (total = 0): 
DRAM[1]: 16 bks, busW=4 BL=8 CL=12, tRRD=2 tCCD=6, tRCD=12 tRAS=28 tRP=12 tRC=40
n_cmd=195755 n_nop=158177 n_act=3832 n_pre=3816 n_req=15247 n_rd=14118 n_write=15812 bw_util=0.3058
n_activity=113473 dram_eff=0.5275
bk0: 878a 164542i bk1: 774a 166714i bk2: 754a 166401i bk3: 754a 166049i bk4: 832a 160832i bk5: 776a 162641i bk6: 958a 153651i bk7: 946a 154687i bk8: 984a 156820i bk9: 976a 155038i bk10: 1004a 153620i bk11: 1008a 153164i bk12: 978a 151895i bk13: 932a 153351i bk14: 782a 160619i bk15: 782a 160048i 
dram_util_bins: 0 0 0 0 0 0 0 0 0 0
dram_eff_bins: 0 0 0 0 0 0 0 0 0 0
mrqq: max=16 avg=4.50108
Memory Partition 2: 
Cache L2_bank_004:
MSHR contents

Cache L2_bank_005:
MSHR contents

In Dram Latency Queue (total = 0): 
DRAM[2]: 16 bks, busW=4 BL=8 CL=12, tRRD=2 tCCD=6, tRCD=12 tRAS=28 tRP=12 tRC=40
n_cmd=195755 n_nop=158579 n_act=3536 n_pre=3520 n_req=15342 n_rd=14136 n_write=15984 bw_util=0.3077
n_activity=113705 dram_eff=0.5298
bk0: 790a 167331i bk1: 822a 166083i bk2: 808a 165133i bk3: 736a 166529i bk4: 816a 163430i bk5: 820a 161553i bk6: 1018a 153509i bk7: 908a 156871i bk8: 968a 157015i bk9: 1010a 155751i bk10: 1020a 154762i bk11: 948a 156233i bk12: 1008a 152732i bk13: 928a 154056i bk14: 750a 162918i bk15: 786a 161178i 
dram_util_bins: 0 0 0 0 0 0 0 0 0 0
dram_eff_bins: 0 0 0 0 0 0 0 0 0 0
mrqq: max=16 avg=4.64963
Memory Partition 3: 
Cache L2_bank_006:
MSHR contents

Cache L2_bank_007:
MSHR contents

In Dram Latency Queue (total = 0): 
DRAM[3]: 16 bks, busW=4 BL=8 CL=12, tRRD=2 tCCD=6, tRCD=12 tRAS=28 tRP=12 tRC=40
n_cmd=195755 n_nop=158262 n_act=3799 n_pre=3783 n_req=15215 n_rd=13926 n_write=15985 bw_util=0.3056
n_activity=116025 dram_eff=0.5156
bk0: 796a 168430i bk1: 786a 167222i bk2: 714a 168004i bk3: 752a 166897i bk4: 852a 163372i bk5: 856a 160723i bk6: 930a 156474i bk7: 926a 156663i bk8: 970a 157997i bk9: 962a 158284i bk10: 958a 157599i bk11: 978a 154980i bk12: 992a 153527i bk13: 940a 155018i bk14: 744a 163094i bk15: 770a 162166i 
dram_util_bins: 0 0 0 0 0 0 0 0 0 0
dram_eff_bins: 0 0 0 0 0 0 0 0 0 0
mrqq: max=16 avg=4.02521
Memory Partition 4: 
Cache L2_bank_008:
MSHR contents

Cache L2_bank_009:
MSHR contents

In Dram Latency Queue (total = 0): 
DRAM[4]: 16 bks, busW=4 BL=8 CL=12, tRRD=2 tCCD=6, tRCD=12 tRAS=28 tRP=12 tRC=40
n_cmd=195755 n_nop=158806 n_act=3557 n_pre=3541 n_req=15203 n_rd=14048 n_write=15803 bw_util=0.305
n_activity=110273 dram_eff=0.5414
bk0: 820a 166729i bk1: 712a 170137i bk2: 732a 166597i bk3: 774a 164550i bk4: 794a 162974i bk5: 858a 160746i bk6: 902a 156012i bk7: 986a 152521i bk8: 974a 153771i bk9: 986a 153675i bk10: 940a 154976i bk11: 1058a 149904i bk12: 948a 154202i bk13: 968a 151641i bk14: 798a 159410i bk15: 798a 159424i 
dram_util_bins: 0 0 0 0 0 0 0 0 0 0
dram_eff_bins: 0 0 0 0 0 0 0 0 0 0
mrqq: max=16 avg=4.89536
Memory Partition 5: 
Cache L2_bank_010:
MSHR contents

Cache L2_bank_011:
MSHR contents

In Dram Latency Queue (total = 0): 
DRAM[5]: 16 bks, busW=4 BL=8 CL=12, tRRD=2 tCCD=6, tRCD=12 tRAS=28 tRP=12 tRC=40
n_cmd=195755 n_nop=157980 n_act=3740 n_pre=3724 n_req=15418 n_rd=14330 n_write=15981 bw_util=0.3097
n_activity=110752 dram_eff=0.5474
bk0: 784a 167277i bk1: 776a 167027i bk2: 786a 165922i bk3: 750a 166516i bk4: 850a 161281i bk5: 868a 158325i bk6: 978a 154128i bk7: 930a 155687i bk8: 982a 155061i bk9: 994a 153908i bk10: 1048a 150668i bk11: 994a 151637i bk12: 982a 151751i bk13: 982a 150548i bk14: 826a 158012i bk15: 800a 158962i 
dram_util_bins: 0 0 0 0 0 0 0 0 0 0
dram_eff_bins: 0 0 0 0 0 0 0 0 0 0
mrqq: max=16 avg=4.76572

========= L2 cache stats =========
L2_cache_bank[0]: Access = 6776, Miss = 3411, Miss_rate = 0.503, Pending_hits = 121, Reservation_fails = 1010
L2_cache_bank[1]: Access = 6890, Miss = 3456, Miss_rate = 0.502, Pending_hits = 114, Reservation_fails = 758
L2_cache_bank[2]: Access = 6797, Miss = 3585, Miss_rate = 0.527, Pending_hits = 138, Reservation_fails = 848
L2_cache_bank[3]: Access = 6770, Miss = 3474, Miss_rate = 0.513, Pending_hits = 125, Reservation_fails = 581
L2_cache_bank[4]: Access = 6790, Miss = 3589, Miss_rate = 0.529, Pending_hits = 139, Reservation_fails = 1024
L2_cache_bank[5]: Access = 6981, Miss = 3479, Miss_rate = 0.498, Pending_hits = 125, Reservation_fails = 464
L2_cache_bank[6]: Access = 6943, Miss = 3478, Miss_rate = 0.501, Pending_hits = 117, Reservation_fails = 681
L2_cache_bank[7]: Access = 7064, Miss = 3485, Miss_rate = 0.493, Pending_hits = 105, Reservation_fails = 945
L2_cache_bank[8]: Access = 6995, Miss = 3454, Miss_rate = 0.494, Pending_hits = 126, Reservation_fails = 690
L2_cache_bank[9]: Access = 6718, Miss = 3570, Miss_rate = 0.531, Pending_hits = 115, Reservation_fails = 704
L2_cache_bank[10]: Access = 6981, Miss = 3618, Miss_rate = 0.518, Pending_hits = 128, Reservation_fails = 713
L2_cache_bank[11]: Access = 6784, Miss = 3547, Miss_rate = 0.523, Pending_hits = 111, Reservation_fails = 423
L2_total_cache_accesses = 82489
L2_total_cache_misses = 42146
L2_total_cache_miss_rate = 0.5109
L2_total_cache_pending_hits = 1464
L2_total_cache_reservation_fails = 8841
L2_total_cache_breakdown:
	L2_cache_stats_breakdown[GLOBAL_ACC_R][HIT] = 2284
	L2_cache_stats_breakdown[GLOBAL_ACC_R][HIT_RESERVED] = 103
	L2_cache_stats_breakdown[GLOBAL_ACC_R][MISS] = 1522
	L2_cache_stats_breakdown[GLOBAL_ACC_R][RESERVATION_FAIL] = 1
	L2_cache_stats_breakdown[LOCAL_ACC_R][HIT] = 4167
	L2_cache_stats_breakdown[LOCAL_ACC_R][HIT_RESERVED] = 308
	L2_cache_stats_breakdown[LOCAL_ACC_R][MISS] = 2959
	L2_cache_stats_breakdown[LOCAL_ACC_R][RESERVATION_FAIL] = 1
	L2_cache_stats_breakdown[CONST_ACC_R][HIT] = 22
	L2_cache_stats_breakdown[CONST_ACC_R][HIT_RESERVED] = 6
	L2_cache_stats_breakdown[CONST_ACC_R][MISS] = 2
	L2_cache_stats_breakdown[CONST_ACC_R][RESERVATION_FAIL] = 353
	L2_cache_stats_breakdown[GLOBAL_ACC_W][HIT] = 5356
	L2_cache_stats_breakdown[GLOBAL_ACC_W][HIT_RESERVED] = 775
	L2_cache_stats_breakdown[GLOBAL_ACC_W][MISS] = 2061
	L2_cache_stats_breakdown[GLOBAL_ACC_W][RESERVATION_FAIL] = 34
	L2_cache_stats_breakdown[LOCAL_ACC_W][HIT] = 13042
	L2_cache_stats_breakdown[LOCAL_ACC_W][HIT_RESERVED] = 45
	L2_cache_stats_breakdown[LOCAL_ACC_W][MISS] = 31471
	L2_cache_stats_breakdown[LOCAL_ACC_W][RESERVATION_FAIL] = 479
	L2_cache_stats_breakdown[L1_WRBK_ACC][HIT] = 1026
	L2_cache_stats_breakdown[L1_WRBK_ACC][MISS] = 4029
	L2_cache_stats_breakdown[L1_WRBK_ACC][RESERVATION_FAIL] = 23
	L2_cache_stats_breakdown[INST_ACC_R][HIT] = 12982
	L2_cache_stats_breakdown[INST_ACC_R][HIT_RESERVED] = 227
	L2_cache_stats_breakdown[INST_ACC_R][MISS] = 102
	L2_cache_stats_breakdown[INST_ACC_R][RESERVATION_FAIL] = 7950
L2_cache_data_port_util = 0.083
L2_cache_fill_port_util = 0.095

icnt_total_pkts_mem_to_simt=176110
icnt_total_pkts_simt_to_mem=294118
LD_mem_lat_dist  0 0 0 0 0 0 0 0 0 0 0 0 0 0 0 0 0 0 0 0 0 0 0 0 0 0 0
ST_mem_lat_dist  0 0 0 0 0 0 0 0 0 0 0 0 0 0 0 0 0 0 0 0 0 0 0 0 0 0 0
----------------------------Interconnect-DETAILS--------------------------------
Class 0:
Packet latency average = 19.3073
	minimum = 6
	maximum = 863
Network latency average = 15.0034
	minimum = 6
	maximum = 719
Slowest packet = 14713
Flit latency average = 14.1474
	minimum = 6
	maximum = 716
Slowest flit = 43737
Fragmentation average = 0.23023
	minimum = 0
	maximum = 608
Injected packet rate average = 0.0399398
	minimum = 0.034646 (at node 0)
	maximum = 0.0447943 (at node 22)
Accepted packet rate average = 0.0399398
	minimum = 0.0331827 (at node 0)
	maximum = 0.0476332 (at node 22)
Injected flit rate average = 0.117437
	minimum = 0.0940661 (at node 24)
	maximum = 0.143351 (at node 3)
Accepted flit rate average= 0.117437
	minimum = 0.0714093 (at node 2)
	maximum = 0.167438 (at node 21)
Injected packet length average = 2.94034
Accepted packet length average = 2.94034
Total in-flight flits = 0 (0 measured)
====== Overall Traffic Statistics ======
====== Traffic class 0 ======
Packet latency average = 19.3073 (1 samples)
	minimum = 6 (1 samples)
	maximum = 863 (1 samples)
Network latency average = 15.0034 (1 samples)
	minimum = 6 (1 samples)
	maximum = 719 (1 samples)
Flit latency average = 14.1474 (1 samples)
	minimum = 6 (1 samples)
	maximum = 716 (1 samples)
Fragmentation average = 0.23023 (1 samples)
	minimum = 0 (1 samples)
	maximum = 608 (1 samples)
Injected packet rate average = 0.0399398 (1 samples)
	minimum = 0.034646 (1 samples)
	maximum = 0.0447943 (1 samples)
Accepted packet rate average = 0.0399398 (1 samples)
	minimum = 0.0331827 (1 samples)
	maximum = 0.0476332 (1 samples)
Injected flit rate average = 0.117437 (1 samples)
	minimum = 0.0940661 (1 samples)
	maximum = 0.143351 (1 samples)
Accepted flit rate average = 0.117437 (1 samples)
	minimum = 0.0714093 (1 samples)
	maximum = 0.167438 (1 samples)
Injected packet size average = 2.94034 (1 samples)
Accepted packet size average = 2.94034 (1 samples)
Hops average = 1 (1 samples)
----------------------------END-of-Interconnect-DETAILS-------------------------


gpgpu_simulation_time = 0 days, 0 hrs, 2 min, 36 sec (156 sec)
gpgpu_simulation_rate = 401811 (inst/sec)
gpgpu_simulation_rate = 950 (cycle/sec)
GPGPU-Sim API: Stream Manager State
GPGPU-Sim: detected inactive GPU simulation thread

checksum=75ef40cb5b8e
Kernel Time: 154506.015625 
