

        *** GPGPU-Sim Simulator Version 3.2.2  [build 0] ***


GPGPU-Sim PTX: simulation mode 0 (can change with PTX_SIM_MODE_FUNC environment variable:
               1=functional simulation only, 0=detailed performance simulator)
GPGPU-Sim: Configuration options:

-network_mode                           1 # Interconnection network mode
-inter_config_file   config_fermi_islip.icnt # Interconnection network config file
-gpgpu_ptx_use_cuobjdump                    1 # Use cuobjdump to extract ptx and sass from binaries
-gpgpu_experimental_lib_support                    0 # Try to extract code from cuda libraries [Broken because of unknown cudaGetExportTable]
-gpgpu_ptx_convert_to_ptxplus                    0 # Convert SASS (native ISA) to ptxplus and run ptxplus
-gpgpu_ptx_force_max_capability                   20 # Force maximum compute capability
-gpgpu_ptx_inst_debug_to_file                    0 # Dump executed instructions' debug information to file
-gpgpu_ptx_inst_debug_file       inst_debug.txt # Executed instructions' debug output file
-gpgpu_ptx_inst_debug_thread_uid                    1 # Thread UID for executed instructions' debug output
-gpgpu_simd_model                       1 # 1 = post-dominator
-gpgpu_shader_core_pipeline              1536:32 # shader core pipeline config, i.e., {<nthread>:<warpsize>}
-gpgpu_tex_cache:l1  4:128:24,L:R:m:N:L,F:128:4,128:2 # per-shader L1 texture cache  (READ-ONLY) config  {<nsets>:<bsize>:<assoc>,<rep>:<wr>:<alloc>:<wr_alloc>,<mshr>:<N>:<merge>,<mq>:<rf>}
-gpgpu_const_cache:l1 64:64:2,L:R:f:N:L,A:2:32,4 # per-shader L1 constant memory cache  (READ-ONLY) config  {<nsets>:<bsize>:<assoc>,<rep>:<wr>:<alloc>:<wr_alloc>,<mshr>:<N>:<merge>,<mq>} 
-gpgpu_cache:il1     4:128:4,L:R:f:N:L,A:2:32,4 # shader L1 instruction cache config  {<nsets>:<bsize>:<assoc>,<rep>:<wr>:<alloc>:<wr_alloc>,<mshr>:<N>:<merge>,<mq>} 
-gpgpu_cache:dl1     32:128:8,L:L:m:N:H,A:32:8,8 # per-shader L1 data cache config  {<nsets>:<bsize>:<assoc>,<rep>:<wr>:<alloc>:<wr_alloc>,<mshr>:<N>:<merge>,<mq> | none}
-gpgpu_cache:dl1PrefL1                 none # per-shader L1 data cache config  {<nsets>:<bsize>:<assoc>,<rep>:<wr>:<alloc>:<wr_alloc>,<mshr>:<N>:<merge>,<mq> | none}
-gpgpu_cache:dl1PreShared                 none # per-shader L1 data cache config  {<nsets>:<bsize>:<assoc>,<rep>:<wr>:<alloc>:<wr_alloc>,<mshr>:<N>:<merge>,<mq> | none}
-gmem_skip_L1D                          0 # global memory access skip L1D cache (implements -Xptxas -dlcm=cg, default=no skip)
-gpgpu_perfect_mem                      0 # enable perfect memory mode (no cache miss)
-n_regfile_gating_group                    4 # group of lanes that should be read/written together)
-gpgpu_clock_gated_reg_file                    0 # enable clock gated reg file for power calculations
-gpgpu_clock_gated_lanes                    0 # enable clock gated lanes for power calculations
-gpgpu_shader_registers                32768 # Number of registers per shader core. Limits number of concurrent CTAs. (default 8192)
-gpgpu_shader_cta                       8 # Maximum number of concurrent CTAs in shader (default 8)
-gpgpu_num_cta_barriers                   16 # Maximum number of named barriers per CTA (default 16)
-gpgpu_n_clusters                      15 # number of processing clusters
-gpgpu_n_cores_per_cluster                    1 # number of simd cores per cluster
-gpgpu_n_cluster_ejection_buffer_size                    8 # number of packets in ejection buffer
-gpgpu_n_ldst_response_buffer_size                    2 # number of response packets in ld/st unit ejection buffer
-gpgpu_shmem_size                   16384 # Size of shared memory per shader core (default 16kB)
-gpgpu_shmem_size                   49152 # Size of shared memory per shader core (default 16kB)
-gpgpu_shmem_size_PrefL1                16384 # Size of shared memory per shader core (default 16kB)
-gpgpu_shmem_size_PrefShared                16384 # Size of shared memory per shader core (default 16kB)
-gpgpu_shmem_num_banks                   32 # Number of banks in the shared memory in each shader core (default 16)
-gpgpu_shmem_limited_broadcast                    0 # Limit shared memory to do one broadcast per cycle (default on)
-gpgpu_shmem_warp_parts                    1 # Number of portions a warp is divided into for shared memory bank conflict check 
-gpgpu_warpdistro_shader                   -1 # Specify which shader core to collect the warp size distribution from
-gpgpu_warp_issue_shader                    0 # Specify which shader core to collect the warp issue distribution from
-gpgpu_local_mem_map                    1 # Mapping from local memory space address to simulated GPU physical address space (default = enabled)
-gpgpu_num_reg_banks                   16 # Number of register banks (default = 8)
-gpgpu_reg_bank_use_warp_id                    0 # Use warp ID in mapping registers to banks (default = off)
-gpgpu_operand_collector_num_units_sp                    6 # number of collector units (default = 4)
-gpgpu_operand_collector_num_units_sfu                    8 # number of collector units (default = 4)
-gpgpu_operand_collector_num_units_mem                    2 # number of collector units (default = 2)
-gpgpu_operand_collector_num_units_gen                    0 # number of collector units (default = 0)
-gpgpu_operand_collector_num_in_ports_sp                    2 # number of collector unit in ports (default = 1)
-gpgpu_operand_collector_num_in_ports_sfu                    1 # number of collector unit in ports (default = 1)
-gpgpu_operand_collector_num_in_ports_mem                    1 # number of collector unit in ports (default = 1)
-gpgpu_operand_collector_num_in_ports_gen                    0 # number of collector unit in ports (default = 0)
-gpgpu_operand_collector_num_out_ports_sp                    2 # number of collector unit in ports (default = 1)
-gpgpu_operand_collector_num_out_ports_sfu                    1 # number of collector unit in ports (default = 1)
-gpgpu_operand_collector_num_out_ports_mem                    1 # number of collector unit in ports (default = 1)
-gpgpu_operand_collector_num_out_ports_gen                    0 # number of collector unit in ports (default = 0)
-gpgpu_coalesce_arch                   13 # Coalescing arch (default = 13, anything else is off for now)
-gpgpu_num_sched_per_core                    2 # Number of warp schedulers per core
-gpgpu_max_insn_issue_per_warp                    1 # Max number of instructions that can be issued per warp in one cycle by scheduler
-gpgpu_simt_core_sim_order                    1 # Select the simulation order of cores in a cluster (0=Fix, 1=Round-Robin)
-gpgpu_pipeline_widths        2,1,1,2,1,1,2 # Pipeline widths ID_OC_SP,ID_OC_SFU,ID_OC_MEM,OC_EX_SP,OC_EX_SFU,OC_EX_MEM,EX_WB
-gpgpu_num_sp_units                     2 # Number of SP units (default=1)
-gpgpu_num_sfu_units                    1 # Number of SF units (default=1)
-gpgpu_num_mem_units                    1 # Number if ldst units (default=1) WARNING: not hooked up to anything
-gpgpu_scheduler                      gto # Scheduler configuration: < lrr | gto | two_level_active > If two_level_active:<num_active_warps>:<inner_prioritization>:<outer_prioritization>For complete list of prioritization values see shader.h enum scheduler_prioritization_typeDefault: gto
-gpgpu_dram_scheduler                    1 # 0 = fifo, 1 = FR-FCFS (defaul)
-gpgpu_dram_partition_queues              8:8:8:8 # i2$:$2d:d2$:$2i
-l2_ideal                               0 # Use a ideal L2 cache that always hit
-gpgpu_cache:dl2     64:128:8,L:B:m:W:L,A:32:4,4:0,32 # unified banked L2 data cache config  {<nsets>:<bsize>:<assoc>,<rep>:<wr>:<alloc>:<wr_alloc>,<mshr>:<N>:<merge>,<mq>}
-gpgpu_cache:dl2_texture_only                    0 # L2 cache used for texture only
-gpgpu_n_mem                            6 # number of memory modules (e.g. memory controllers) in gpu
-gpgpu_n_sub_partition_per_mchannel                    2 # number of memory subpartition in each memory module
-gpgpu_n_mem_per_ctrlr                    2 # number of memory chips per memory controller
-gpgpu_memlatency_stat                   14 # track and display latency statistics 0x2 enables MC, 0x4 enables queue logs
-gpgpu_frfcfs_dram_sched_queue_size                   16 # 0 = unlimited (default); # entries per chip
-gpgpu_dram_return_queue_size                  116 # 0 = unlimited (default); # entries per chip
-gpgpu_dram_buswidth                    4 # default = 4 bytes (8 bytes per cycle at DDR)
-gpgpu_dram_burst_length                    8 # Burst length of each DRAM request (default = 4 data bus cycle)
-dram_data_command_freq_ratio                    4 # Frequency ratio between DRAM data bus and command bus (default = 2 times, i.e. DDR)
-gpgpu_dram_timing_opt nbk=16:CCD=2:RRD=6:RCD=12:RAS=28:RP=12:RC=40: CL=12:WL=4:CDLR=5:WR=12:nbkgrp=4:CCDL=3:RTPL=2 # DRAM timing parameters = {nbk:tCCD:tRRD:tRCD:tRAS:tRP:tRC:CL:WL:tCDLR:tWR:nbkgrp:tCCDL:tRTPL}
-rop_latency                          120 # ROP queue latency (default 85)
-dram_latency                         100 # DRAM latency (default 30)
-gpgpu_mem_addr_mapping dramid@8;00000000.00000000.00000000.00000000.0000RRRR.RRRRRRRR.BBBCCCCB.CCSSSSSS # mapping memory address to dram model {dramid@<start bit>;<memory address map>}
-gpgpu_mem_addr_test                    0 # run sweep test to check address mapping for aliased address
-gpgpu_mem_address_mask                    1 # 0 = old addressing mask, 1 = new addressing mask, 2 = new add. mask + flipped bank sel and chip sel bits
-gpuwattch_xml_file  gpuwattch_gtx480.xml # GPUWattch XML file
-power_simulation_enabled                    0 # Turn on power simulator (1=On, 0=Off)
-power_per_cycle_dump                    0 # Dump detailed power output each cycle
-power_trace_enabled                    0 # produce a file for the power trace (1=On, 0=Off)
-power_trace_zlevel                     6 # Compression level of the power trace output log (0=no comp, 9=highest)
-steady_power_levels_enabled                    0 # produce a file for the steady power levels (1=On, 0=Off)
-steady_state_definition                  8:4 # allowed deviation:number of samples
-gpgpu_max_cycle                        0 # terminates gpu simulation early (0 = no limit)
-gpgpu_max_insn                         0 # terminates gpu simulation early (0 = no limit)
-gpgpu_max_cta                          0 # terminates gpu simulation early (0 = no limit)
-gpgpu_runtime_stat                   500 # display runtime statistics such as dram utilization {<freq>:<flag>}
-liveness_message_freq                    1 # Minimum number of seconds between simulation liveness messages (0 = always print)
-gpgpu_flush_l1_cache                    0 # Flush L1 cache at the end of each kernel call
-gpgpu_flush_l2_cache                    0 # Flush L2 cache at the end of each kernel call
-gpgpu_deadlock_detect                    1 # Stop the simulation at deadlock (1=on (default), 0=off)
-gpgpu_ptx_instruction_classification                    0 # if enabled will classify ptx instruction types per kernel (Max 255 kernels now)
-gpgpu_ptx_sim_mode                     0 # Select between Performance (default) or Functional simulation (1)
-gpgpu_clock_domains 700.0:700.0:700.0:924.0 # Clock Domain Frequencies in MhZ {<Core Clock>:<ICNT Clock>:<L2 Clock>:<DRAM Clock>}
-gpgpu_max_concurrent_kernel                    8 # maximum kernels that can run concurrently on GPU
-gpgpu_cflog_interval                    0 # Interval between each snapshot in control flow logger
-visualizer_enabled                     0 # Turn on visualizer output (1=On, 0=Off)
-visualizer_outputfile                 NULL # Specifies the output log file for visualizer
-visualizer_zlevel                      6 # Compression level of the visualizer output log (0=no comp, 9=highest)
-trace_enabled                          0 # Turn on traces
-trace_components                    none # comma seperated list of traces to enable. Complete list found in trace_streams.tup. Default none
-trace_sampling_core                    0 # The core which is printed using CORE_DPRINTF. Default 0
-trace_sampling_memory_partition                   -1 # The memory partition which is printed using MEMPART_DPRINTF. Default -1 (i.e. all)
-enable_ptx_file_line_stats                    1 # Turn on PTX source line statistic profiling. (1 = On)
-ptx_line_stats_filename gpgpu_inst_stats.txt # Output file for PTX source line statistics.
-save_embedded_ptx                      0 # saves ptx files embedded in binary as <n>.ptx
-keep                                   0 # keep intermediate files created by GPGPU-Sim when interfacing with external programs
-gpgpu_ptx_save_converted_ptxplus                    0 # Saved converted ptxplus to a file
-ptx_opcode_latency_int         4,13,4,5,145 # Opcode latencies for integers <ADD,MAX,MUL,MAD,DIV>Default 1,1,19,25,145
-ptx_opcode_latency_fp          4,13,4,5,39 # Opcode latencies for single precision floating points <ADD,MAX,MUL,MAD,DIV>Default 1,1,1,1,30
-ptx_opcode_latency_dp         8,19,8,8,330 # Opcode latencies for double precision floating points <ADD,MAX,MUL,MAD,DIV>Default 8,8,8,8,335
-ptx_opcode_initiation_int            1,2,2,1,8 # Opcode initiation intervals for integers <ADD,MAX,MUL,MAD,DIV>Default 1,1,4,4,32
-ptx_opcode_initiation_fp            1,2,1,1,4 # Opcode initiation intervals for single precision floating points <ADD,MAX,MUL,MAD,DIV>Default 1,1,1,1,5
-ptx_opcode_initiation_dp         8,16,8,8,130 # Opcode initiation intervals for double precision floating points <ADD,MAX,MUL,MAD,DIV>Default 8,8,8,8,130
DRAM Timing Options:
nbk                                    16 # number of banks
CCD                                     2 # column to column delay
RRD                                     6 # minimal delay between activation of rows in different banks
RCD                                    12 # row to column delay
RAS                                    28 # time needed to activate row
RP                                     12 # time needed to precharge (deactivate) row
RC                                     40 # row cycle time
CDLR                                    5 # switching from write to read (changes tWTR)
WR                                     12 # last data-in to row precharge
CL                                     12 # CAS latency
WL                                      4 # Write latency
nbkgrp                                  4 # number of bank groups
CCDL                                    3 # column to column delay between accesses to different bank groups
RTPL                                    2 # read to precharge delay between accesses to different bank groups
Total number of memory sub partition = 12
addr_dec_mask[CHIP]  = 0000000000000000 	high:64 low:0
addr_dec_mask[BK]    = 000000000000e100 	high:16 low:8
addr_dec_mask[ROW]   = 000000000fff0000 	high:28 low:16
addr_dec_mask[COL]   = 0000000000001eff 	high:13 low:0
addr_dec_mask[BURST] = 000000000000003f 	high:6 low:0
sub_partition_id_mask = 0000000000000100
GPGPU-Sim uArch: clock freqs: 700000000.000000:700000000.000000:700000000.000000:924000000.000000
GPGPU-Sim uArch: clock periods: 0.00000000142857142857:0.00000000142857142857:0.00000000142857142857:0.00000000108225108225
*** Initializing Memory Statistics ***
GPGPU-Sim uArch: interconnect node map (shaderID+MemID to icntID)
GPGPU-Sim uArch: Memory nodes ID start from index: 15
GPGPU-Sim uArch:    0   1   2   3   4
GPGPU-Sim uArch:    5   6   7   8   9
GPGPU-Sim uArch:   10  11  12  13  14
GPGPU-Sim uArch:   15  16  17  18  19
GPGPU-Sim uArch:   20  21  22  23  24
GPGPU-Sim uArch:   25  26
GPGPU-Sim uArch: interconnect node reverse map (icntID to shaderID+MemID)
GPGPU-Sim uArch: Memory nodes start from ID: 15
GPGPU-Sim uArch:    0   1   2   3   4
GPGPU-Sim uArch:    5   6   7   8   9
GPGPU-Sim uArch:   10  11  12  13  14
GPGPU-Sim uArch:   15  16  17  18  19
GPGPU-Sim uArch:   20  21  22  23  24
GPGPU-Sim uArch:   25  26
e389dacb331e7fcddf4abf4a164344f1  /sciclone/data20/adwait/applications/benchmarks/CUDA/BlackScholes/gpgpu_ptx_sim__BlackScholes
GPGPU-Sim uArch: performance model initialization complete.
GPGPU-Sim PTX: __cudaRegisterFatBinary, fat_cubin_handle = 1, filename=BlackScholes.cu
self exe links to: /sciclone/data20/adwait/applications/benchmarks/CUDA/BlackScholes/gpgpu_ptx_sim__BlackScholes
Running md5sum using "md5sum /sciclone/data20/adwait/applications/benchmarks/CUDA/BlackScholes/gpgpu_ptx_sim__BlackScholes "
Parsing file _cuobjdump_complete_output_FWVWwC
######### cuobjdump parser ########
## Adding new section ELF
Adding arch: sm_20
Adding identifier: BlackScholes.cu
## Adding new section PTX
Adding ptx filename: _cuobjdump_1.ptx
Adding arch: sm_20
Adding identifier: BlackScholes.cu
Done parsing!!!
GPGPU-Sim PTX: __cudaRegisterFunction _Z15BlackScholesGPUPfS_S_S_S_ffi : hostFun 0x0x405752, fat_cubin_handle = 1
GPGPU-Sim PTX: instruction assembly for function '_Z15BlackScholesGPUPfS_S_S_S_ffi'...   done.
GPGPU-Sim PTX: finding reconvergence points for '_Z15BlackScholesGPUPfS_S_S_S_ffi'...
GPGPU-Sim PTX: Finding dominators for '_Z15BlackScholesGPUPfS_S_S_S_ffi'...
GPGPU-Sim PTX: Finding immediate dominators for '_Z15BlackScholesGPUPfS_S_S_S_ffi'...
GPGPU-Sim PTX: Finding postdominators for '_Z15BlackScholesGPUPfS_S_S_S_ffi'...
GPGPU-Sim PTX: Finding immediate postdominators for '_Z15BlackScholesGPUPfS_S_S_S_ffi'...
GPGPU-Sim PTX: pre-decoding instructions for '_Z15BlackScholesGPUPfS_S_S_S_ffi'...
GPGPU-Sim PTX: reconvergence points for _Z15BlackScholesGPUPfS_S_S_S_ffi...
GPGPU-Sim PTX:  1 (potential) branch divergence @  PC=0x040 (_1.ptx:76) @%p1 bra $Lt_0_2818;
GPGPU-Sim PTX:    immediate post dominator      @  PC=0x3f8 (_1.ptx:200) exit;
GPGPU-Sim PTX:  2 (potential) branch divergence @  PC=0x3f0 (_1.ptx:197) @%p4 bra $Lt_0_3330;
GPGPU-Sim PTX:    immediate post dominator      @  PC=0x3f8 (_1.ptx:200) exit;
GPGPU-Sim PTX: ... end of reconvergence points for _Z15BlackScholesGPUPfS_S_S_S_ffi
GPGPU-Sim PTX: ... done pre-decoding instructions for '_Z15BlackScholesGPUPfS_S_S_S_ffi'.
GPGPU-Sim PTX: finished parsing EMBEDDED .ptx file _1.ptx
Adding _cuobjdump_1.ptx with cubin handle 1
GPGPU-Sim PTX: extracting embedded .ptx to temporary file "_ptx_RNZqdt"
Running: cat _ptx_RNZqdt | sed 's/.version 1.5/.version 1.4/' | sed 's/, texmode_independent//' | sed 's/\(\.extern \.const\[1\] .b8 \w\+\)\[\]/\1\[1\]/' | sed 's/const\[.\]/const\[0\]/g' > _ptx2_pCsZbl
GPGPU-Sim PTX: generating ptxinfo using "$CUDA_INSTALL_PATH/bin/ptxas --gpu-name=sm_20 -v _ptx2_pCsZbl --output-file  /dev/null 2> _ptx_RNZqdtinfo"
GPGPU-Sim PTX: Kernel '_Z15BlackScholesGPUPfS_S_S_S_ffi' : regs=31, lmem=0, smem=0, cmem=128
GPGPU-Sim PTX: removing ptxinfo using "rm -f _ptx_RNZqdt _ptx2_pCsZbl _ptx_RNZqdtinfo"
GPGPU-Sim PTX: loading globals with explicit initializers... 
GPGPU-Sim PTX: finished loading globals (0 bytes total).
GPGPU-Sim PTX: loading constants with explicit initializers...  done.
Initializing data...
...allocating CPU memory for options.
...allocating GPU memory for options.
...generating input data in CPU mem.
...copying input data to GPU mem.
Data init done.
Executing Black-Scholes GPU kernel (1 iterations)...
GPGPU-Sim: synchronize waiting for inactive GPU simulation
GPGPU-Sim API: Stream Manager State
GPGPU-Sim: detected inactive GPU simulation thread

GPGPU-Sim PTX: cudaLaunch for 0x0x405752 (mode=performance simulation) on stream 0
GPGPU-Sim PTX: pushing kernel '_Z15BlackScholesGPUPfS_S_S_S_ffi' to stream 0, gridDim= (480,1,1) blockDim = (128,1,1) 
kernel '_Z15BlackScholesGPUPfS_S_S_S_ffi' transfer to GPU hardware scheduler
GPGPU-Sim uArch: Shader 1 bind to kernel 1 '_Z15BlackScholesGPUPfS_S_S_S_ffi'
GPGPU-Sim uArch: CTA/core = 8, limited by: regs cta_limit
GPGPU-Sim uArch: core:  1, cta: 0 initialized @(1,0)
GPGPU-Sim uArch: Shader 2 bind to kernel 1 '_Z15BlackScholesGPUPfS_S_S_S_ffi'
GPGPU-Sim uArch: core:  2, cta: 0 initialized @(1,0)
GPGPU-Sim uArch: Shader 3 bind to kernel 1 '_Z15BlackScholesGPUPfS_S_S_S_ffi'
GPGPU-Sim uArch: core:  3, cta: 0 initialized @(1,0)
GPGPU-Sim uArch: Shader 4 bind to kernel 1 '_Z15BlackScholesGPUPfS_S_S_S_ffi'
GPGPU-Sim uArch: core:  4, cta: 0 initialized @(1,0)
GPGPU-Sim uArch: Shader 5 bind to kernel 1 '_Z15BlackScholesGPUPfS_S_S_S_ffi'
GPGPU-Sim uArch: core:  5, cta: 0 initialized @(1,0)
GPGPU-Sim uArch: Shader 6 bind to kernel 1 '_Z15BlackScholesGPUPfS_S_S_S_ffi'
GPGPU-Sim uArch: core:  6, cta: 0 initialized @(1,0)
GPGPU-Sim uArch: Shader 7 bind to kernel 1 '_Z15BlackScholesGPUPfS_S_S_S_ffi'
GPGPU-Sim uArch: core:  7, cta: 0 initialized @(1,0)
GPGPU-Sim uArch: Shader 8 bind to kernel 1 '_Z15BlackScholesGPUPfS_S_S_S_ffi'
GPGPU-Sim uArch: core:  8, cta: 0 initialized @(1,0)
GPGPU-Sim uArch: Shader 9 bind to kernel 1 '_Z15BlackScholesGPUPfS_S_S_S_ffi'
GPGPU-Sim uArch: core:  9, cta: 0 initialized @(1,0)
GPGPU-Sim uArch: Shader 10 bind to kernel 1 '_Z15BlackScholesGPUPfS_S_S_S_ffi'
GPGPU-Sim uArch: core: 10, cta: 0 initialized @(1,0)
GPGPU-Sim uArch: Shader 11 bind to kernel 1 '_Z15BlackScholesGPUPfS_S_S_S_ffi'
GPGPU-Sim uArch: core: 11, cta: 0 initialized @(1,0)
GPGPU-Sim uArch: Shader 12 bind to kernel 1 '_Z15BlackScholesGPUPfS_S_S_S_ffi'
GPGPU-Sim uArch: core: 12, cta: 0 initialized @(1,0)
GPGPU-Sim uArch: Shader 13 bind to kernel 1 '_Z15BlackScholesGPUPfS_S_S_S_ffi'
GPGPU-Sim uArch: core: 13, cta: 0 initialized @(1,0)
GPGPU-Sim uArch: Shader 14 bind to kernel 1 '_Z15BlackScholesGPUPfS_S_S_S_ffi'
GPGPU-Sim uArch: core: 14, cta: 0 initialized @(1,0)
GPGPU-Sim uArch: Shader 0 bind to kernel 1 '_Z15BlackScholesGPUPfS_S_S_S_ffi'
GPGPU-Sim uArch: core:  0, cta: 0 initialized @(1,0)
GPGPU-Sim uArch: core:  1, cta: 1 initialized @(2,0)
GPGPU-Sim uArch: core:  2, cta: 1 initialized @(2,0)
GPGPU-Sim uArch: core:  3, cta: 1 initialized @(2,0)
GPGPU-Sim uArch: core:  4, cta: 1 initialized @(2,0)
GPGPU-Sim uArch: core:  5, cta: 1 initialized @(2,0)
GPGPU-Sim uArch: core:  6, cta: 1 initialized @(2,0)
GPGPU-Sim uArch: core:  7, cta: 1 initialized @(2,0)
GPGPU-Sim uArch: core:  8, cta: 1 initialized @(2,0)
GPGPU-Sim uArch: core:  9, cta: 1 initialized @(2,0)
GPGPU-Sim uArch: core: 10, cta: 1 initialized @(2,0)
GPGPU-Sim uArch: core: 11, cta: 1 initialized @(2,0)
GPGPU-Sim uArch: core: 12, cta: 1 initialized @(2,0)
GPGPU-Sim uArch: core: 13, cta: 1 initialized @(2,0)
GPGPU-Sim uArch: core: 14, cta: 1 initialized @(2,0)
GPGPU-Sim uArch: core:  0, cta: 1 initialized @(2,0)
GPGPU-Sim uArch: core:  1, cta: 2 initialized @(3,0)
GPGPU-Sim uArch: core:  2, cta: 2 initialized @(3,0)
GPGPU-Sim uArch: core:  3, cta: 2 initialized @(3,0)
GPGPU-Sim uArch: core:  4, cta: 2 initialized @(3,0)
GPGPU-Sim uArch: core:  5, cta: 2 initialized @(3,0)
GPGPU-Sim uArch: core:  6, cta: 2 initialized @(3,0)
GPGPU-Sim uArch: core:  7, cta: 2 initialized @(3,0)
GPGPU-Sim uArch: core:  8, cta: 2 initialized @(3,0)
GPGPU-Sim uArch: core:  9, cta: 2 initialized @(3,0)
GPGPU-Sim uArch: core: 10, cta: 2 initialized @(3,0)
GPGPU-Sim uArch: core: 11, cta: 2 initialized @(3,0)
GPGPU-Sim uArch: core: 12, cta: 2 initialized @(3,0)
GPGPU-Sim uArch: core: 13, cta: 2 initialized @(3,0)
GPGPU-Sim uArch: core: 14, cta: 2 initialized @(3,0)
GPGPU-Sim uArch: core:  0, cta: 2 initialized @(3,0)
GPGPU-Sim uArch: core:  1, cta: 3 initialized @(4,0)
GPGPU-Sim uArch: core:  2, cta: 3 initialized @(4,0)
GPGPU-Sim uArch: core:  3, cta: 3 initialized @(4,0)
GPGPU-Sim uArch: core:  4, cta: 3 initialized @(4,0)
GPGPU-Sim uArch: core:  5, cta: 3 initialized @(4,0)
GPGPU-Sim uArch: core:  6, cta: 3 initialized @(4,0)
GPGPU-Sim uArch: core:  7, cta: 3 initialized @(4,0)
GPGPU-Sim uArch: core:  8, cta: 3 initialized @(4,0)
GPGPU-Sim uArch: core:  9, cta: 3 initialized @(4,0)
GPGPU-Sim uArch: core: 10, cta: 3 initialized @(4,0)
GPGPU-Sim uArch: core: 11, cta: 3 initialized @(4,0)
GPGPU-Sim uArch: core: 12, cta: 3 initialized @(4,0)
GPGPU-Sim uArch: core: 13, cta: 3 initialized @(4,0)
GPGPU-Sim uArch: core: 14, cta: 3 initialized @(4,0)
GPGPU-Sim uArch: core:  0, cta: 3 initialized @(4,0)
GPGPU-Sim uArch: core:  1, cta: 4 initialized @(5,0)
GPGPU-Sim uArch: core:  2, cta: 4 initialized @(5,0)
GPGPU-Sim uArch: core:  3, cta: 4 initialized @(5,0)
GPGPU-Sim uArch: core:  4, cta: 4 initialized @(5,0)
GPGPU-Sim uArch: core:  5, cta: 4 initialized @(5,0)
GPGPU-Sim uArch: core:  6, cta: 4 initialized @(5,0)
GPGPU-Sim uArch: core:  7, cta: 4 initialized @(5,0)
GPGPU-Sim uArch: core:  8, cta: 4 initialized @(5,0)
GPGPU-Sim uArch: core:  9, cta: 4 initialized @(5,0)
GPGPU-Sim uArch: core: 10, cta: 4 initialized @(5,0)
GPGPU-Sim uArch: core: 11, cta: 4 initialized @(5,0)
GPGPU-Sim uArch: core: 12, cta: 4 initialized @(5,0)
GPGPU-Sim uArch: core: 13, cta: 4 initialized @(5,0)
GPGPU-Sim uArch: core: 14, cta: 4 initialized @(5,0)
GPGPU-Sim uArch: core:  0, cta: 4 initialized @(5,0)
GPGPU-Sim uArch: core:  1, cta: 5 initialized @(6,0)
GPGPU-Sim uArch: core:  2, cta: 5 initialized @(6,0)
GPGPU-Sim uArch: core:  3, cta: 5 initialized @(6,0)
GPGPU-Sim uArch: core:  4, cta: 5 initialized @(6,0)
GPGPU-Sim uArch: core:  5, cta: 5 initialized @(6,0)
GPGPU-Sim uArch: core:  6, cta: 5 initialized @(6,0)
GPGPU-Sim uArch: core:  7, cta: 5 initialized @(6,0)
GPGPU-Sim uArch: core:  8, cta: 5 initialized @(6,0)
GPGPU-Sim uArch: core:  9, cta: 5 initialized @(6,0)
GPGPU-Sim uArch: core: 10, cta: 5 initialized @(6,0)
GPGPU-Sim uArch: core: 11, cta: 5 initialized @(6,0)
GPGPU-Sim uArch: core: 12, cta: 5 initialized @(6,0)
GPGPU-Sim uArch: core: 13, cta: 5 initialized @(6,0)
GPGPU-Sim uArch: core: 14, cta: 5 initialized @(6,0)
GPGPU-Sim uArch: core:  0, cta: 5 initialized @(6,0)
GPGPU-Sim uArch: core:  1, cta: 6 initialized @(7,0)
GPGPU-Sim uArch: core:  2, cta: 6 initialized @(7,0)
GPGPU-Sim uArch: core:  3, cta: 6 initialized @(7,0)
GPGPU-Sim uArch: core:  4, cta: 6 initialized @(7,0)
GPGPU-Sim uArch: core:  5, cta: 6 initialized @(7,0)
GPGPU-Sim uArch: core:  6, cta: 6 initialized @(7,0)
GPGPU-Sim uArch: core:  7, cta: 6 initialized @(7,0)
GPGPU-Sim uArch: core:  8, cta: 6 initialized @(7,0)
GPGPU-Sim uArch: core:  9, cta: 6 initialized @(7,0)
GPGPU-Sim uArch: core: 10, cta: 6 initialized @(7,0)
GPGPU-Sim uArch: core: 11, cta: 6 initialized @(7,0)
GPGPU-Sim uArch: core: 12, cta: 6 initialized @(7,0)
GPGPU-Sim uArch: core: 13, cta: 6 initialized @(7,0)
GPGPU-Sim uArch: core: 14, cta: 6 initialized @(7,0)
GPGPU-Sim uArch: core:  0, cta: 6 initialized @(7,0)
GPGPU-Sim uArch: core:  1, cta: 7 initialized @(8,0)
GPGPU-Sim uArch: core:  2, cta: 7 initialized @(8,0)
GPGPU-Sim uArch: core:  3, cta: 7 initialized @(8,0)
GPGPU-Sim uArch: core:  4, cta: 7 initialized @(8,0)
GPGPU-Sim uArch: core:  5, cta: 7 initialized @(8,0)
GPGPU-Sim uArch: core:  6, cta: 7 initialized @(8,0)
GPGPU-Sim uArch: core:  7, cta: 7 initialized @(8,0)
GPGPU-Sim uArch: core:  8, cta: 7 initialized @(8,0)
GPGPU-Sim uArch: core:  9, cta: 7 initialized @(8,0)
GPGPU-Sim uArch: core: 10, cta: 7 initialized @(8,0)
GPGPU-Sim uArch: core: 11, cta: 7 initialized @(8,0)
GPGPU-Sim uArch: core: 12, cta: 7 initialized @(8,0)
GPGPU-Sim uArch: core: 13, cta: 7 initialized @(8,0)
GPGPU-Sim uArch: core: 14, cta: 7 initialized @(8,0)
GPGPU-Sim uArch: core:  0, cta: 7 initialized @(8,0)
GPGPU-Sim PTX: 100000 instructions simulated : ctaid=(27,0,0) tid=(95,0,0)
GPGPU-Sim uArch: cycles simulated: 500  inst.: 92160 (ipc=184.3) sim_rate=4608 (inst/sec) elapsed = 0:0:00:20 / Sun Feb 28 21:31:53 2016
GPGPU-Sim PTX: 200000 instructions simulated : ctaid=(94,0,0) tid=(95,0,0)
GPGPU-Sim uArch: cycles simulated: 1000  inst.: 238272 (ipc=238.3) sim_rate=11346 (inst/sec) elapsed = 0:0:00:21 / Sun Feb 28 21:31:54 2016
GPGPU-Sim PTX: 300000 instructions simulated : ctaid=(53,0,0) tid=(127,0,0)
GPGPU-Sim PTX: 400000 instructions simulated : ctaid=(70,0,0) tid=(127,0,0)
GPGPU-Sim PTX: 500000 instructions simulated : ctaid=(33,0,0) tid=(31,0,0)
GPGPU-Sim PTX: 600000 instructions simulated : ctaid=(98,0,0) tid=(31,0,0)
GPGPU-Sim uArch: cycles simulated: 2500  inst.: 608160 (ipc=243.3) sim_rate=27643 (inst/sec) elapsed = 0:0:00:22 / Sun Feb 28 21:31:55 2016
GPGPU-Sim PTX: 700000 instructions simulated : ctaid=(75,0,0) tid=(31,0,0)
GPGPU-Sim PTX: 800000 instructions simulated : ctaid=(88,0,0) tid=(95,0,0)
GPGPU-Sim PTX: 900000 instructions simulated : ctaid=(25,0,0) tid=(127,0,0)
GPGPU-Sim PTX: 1000000 instructions simulated : ctaid=(12,0,0) tid=(95,0,0)
GPGPU-Sim PTX: 1100000 instructions simulated : ctaid=(80,0,0) tid=(31,0,0)
GPGPU-Sim uArch: cycles simulated: 3500  inst.: 1149888 (ipc=328.5) sim_rate=49995 (inst/sec) elapsed = 0:0:00:23 / Sun Feb 28 21:31:56 2016
GPGPU-Sim PTX: 1200000 instructions simulated : ctaid=(12,0,0) tid=(31,0,0)
GPGPU-Sim PTX: 1300000 instructions simulated : ctaid=(50,0,0) tid=(127,0,0)
GPGPU-Sim PTX: 1400000 instructions simulated : ctaid=(92,0,0) tid=(95,0,0)
GPGPU-Sim PTX: 1500000 instructions simulated : ctaid=(54,0,0) tid=(95,0,0)
GPGPU-Sim PTX: 1600000 instructions simulated : ctaid=(90,0,0) tid=(95,0,0)
GPGPU-Sim PTX: 1700000 instructions simulated : ctaid=(66,0,0) tid=(127,0,0)
GPGPU-Sim PTX: 1800000 instructions simulated : ctaid=(113,0,0) tid=(127,0,0)
GPGPU-Sim uArch: cycles simulated: 4500  inst.: 1806208 (ipc=401.4) sim_rate=75258 (inst/sec) elapsed = 0:0:00:24 / Sun Feb 28 21:31:57 2016
GPGPU-Sim PTX: 1900000 instructions simulated : ctaid=(81,0,0) tid=(95,0,0)
GPGPU-Sim PTX: 2000000 instructions simulated : ctaid=(6,0,0) tid=(127,0,0)
GPGPU-Sim PTX: 2100000 instructions simulated : ctaid=(7,0,0) tid=(31,0,0)
GPGPU-Sim PTX: 2200000 instructions simulated : ctaid=(6,0,0) tid=(31,0,0)
GPGPU-Sim PTX: 2300000 instructions simulated : ctaid=(14,0,0) tid=(63,0,0)
GPGPU-Sim PTX: 2400000 instructions simulated : ctaid=(40,0,0) tid=(31,0,0)
GPGPU-Sim PTX: 2500000 instructions simulated : ctaid=(91,0,0) tid=(127,0,0)
GPGPU-Sim uArch: cycles simulated: 6000  inst.: 2463200 (ipc=410.5) sim_rate=98528 (inst/sec) elapsed = 0:0:00:25 / Sun Feb 28 21:31:58 2016
GPGPU-Sim PTX: 2600000 instructions simulated : ctaid=(93,0,0) tid=(31,0,0)
GPGPU-Sim PTX: 2700000 instructions simulated : ctaid=(82,0,0) tid=(95,0,0)
GPGPU-Sim PTX: 2800000 instructions simulated : ctaid=(36,0,0) tid=(127,0,0)
GPGPU-Sim PTX: 2900000 instructions simulated : ctaid=(58,0,0) tid=(63,0,0)
GPGPU-Sim PTX: 3000000 instructions simulated : ctaid=(63,0,0) tid=(127,0,0)
GPGPU-Sim PTX: 3100000 instructions simulated : ctaid=(54,0,0) tid=(63,0,0)
GPGPU-Sim uArch: cycles simulated: 7000  inst.: 3092256 (ipc=441.8) sim_rate=118932 (inst/sec) elapsed = 0:0:00:26 / Sun Feb 28 21:31:59 2016
GPGPU-Sim PTX: 3200000 instructions simulated : ctaid=(19,0,0) tid=(63,0,0)
GPGPU-Sim PTX: 3300000 instructions simulated : ctaid=(24,0,0) tid=(31,0,0)
GPGPU-Sim PTX: 3400000 instructions simulated : ctaid=(11,0,0) tid=(127,0,0)
GPGPU-Sim PTX: 3500000 instructions simulated : ctaid=(8,0,0) tid=(31,0,0)
GPGPU-Sim PTX: 3600000 instructions simulated : ctaid=(25,0,0) tid=(63,0,0)
GPGPU-Sim uArch: cycles simulated: 8000  inst.: 3640128 (ipc=455.0) sim_rate=134819 (inst/sec) elapsed = 0:0:00:27 / Sun Feb 28 21:32:00 2016
GPGPU-Sim PTX: 3700000 instructions simulated : ctaid=(39,0,0) tid=(95,0,0)
GPGPU-Sim PTX: 3800000 instructions simulated : ctaid=(17,0,0) tid=(127,0,0)
GPGPU-Sim PTX: 3900000 instructions simulated : ctaid=(34,0,0) tid=(31,0,0)
GPGPU-Sim PTX: 4000000 instructions simulated : ctaid=(116,0,0) tid=(31,0,0)
GPGPU-Sim PTX: 4100000 instructions simulated : ctaid=(13,0,0) tid=(31,0,0)
GPGPU-Sim PTX: 4200000 instructions simulated : ctaid=(6,0,0) tid=(31,0,0)
GPGPU-Sim uArch: cycles simulated: 9000  inst.: 4188704 (ipc=465.4) sim_rate=149596 (inst/sec) elapsed = 0:0:00:28 / Sun Feb 28 21:32:01 2016
GPGPU-Sim PTX: 4300000 instructions simulated : ctaid=(86,0,0) tid=(95,0,0)
GPGPU-Sim PTX: 4400000 instructions simulated : ctaid=(7,0,0) tid=(127,0,0)
GPGPU-Sim PTX: 4500000 instructions simulated : ctaid=(91,0,0) tid=(63,0,0)
GPGPU-Sim PTX: 4600000 instructions simulated : ctaid=(21,0,0) tid=(31,0,0)
GPGPU-Sim PTX: 4700000 instructions simulated : ctaid=(37,0,0) tid=(31,0,0)
GPGPU-Sim PTX: 4800000 instructions simulated : ctaid=(12,0,0) tid=(127,0,0)
GPGPU-Sim uArch: cycles simulated: 10000  inst.: 4777632 (ipc=477.8) sim_rate=164745 (inst/sec) elapsed = 0:0:00:29 / Sun Feb 28 21:32:02 2016
GPGPU-Sim PTX: 4900000 instructions simulated : ctaid=(44,0,0) tid=(127,0,0)
GPGPU-Sim PTX: 5000000 instructions simulated : ctaid=(40,0,0) tid=(63,0,0)
GPGPU-Sim PTX: 5100000 instructions simulated : ctaid=(41,0,0) tid=(127,0,0)
GPGPU-Sim PTX: 5200000 instructions simulated : ctaid=(56,0,0) tid=(95,0,0)
GPGPU-Sim PTX: 5300000 instructions simulated : ctaid=(68,0,0) tid=(31,0,0)
GPGPU-Sim PTX: 5400000 instructions simulated : ctaid=(14,0,0) tid=(31,0,0)
GPGPU-Sim uArch: cycles simulated: 11000  inst.: 5365376 (ipc=487.8) sim_rate=178845 (inst/sec) elapsed = 0:0:00:30 / Sun Feb 28 21:32:03 2016
GPGPU-Sim PTX: 5500000 instructions simulated : ctaid=(23,0,0) tid=(31,0,0)
GPGPU-Sim PTX: 5600000 instructions simulated : ctaid=(35,0,0) tid=(63,0,0)
GPGPU-Sim PTX: 5700000 instructions simulated : ctaid=(11,0,0) tid=(63,0,0)
GPGPU-Sim PTX: 5800000 instructions simulated : ctaid=(56,0,0) tid=(63,0,0)
GPGPU-Sim PTX: 5900000 instructions simulated : ctaid=(33,0,0) tid=(127,0,0)
GPGPU-Sim PTX: 6000000 instructions simulated : ctaid=(21,0,0) tid=(63,0,0)
GPGPU-Sim uArch: cycles simulated: 12000  inst.: 5968352 (ipc=497.4) sim_rate=192527 (inst/sec) elapsed = 0:0:00:31 / Sun Feb 28 21:32:04 2016
GPGPU-Sim PTX: 6100000 instructions simulated : ctaid=(51,0,0) tid=(127,0,0)
GPGPU-Sim PTX: 6200000 instructions simulated : ctaid=(36,0,0) tid=(127,0,0)
GPGPU-Sim PTX: 6300000 instructions simulated : ctaid=(66,0,0) tid=(63,0,0)
GPGPU-Sim PTX: 6400000 instructions simulated : ctaid=(71,0,0) tid=(95,0,0)
GPGPU-Sim PTX: 6500000 instructions simulated : ctaid=(21,0,0) tid=(95,0,0)
GPGPU-Sim PTX: 6600000 instructions simulated : ctaid=(111,0,0) tid=(127,0,0)
GPGPU-Sim uArch: cycles simulated: 13000  inst.: 6583776 (ipc=506.4) sim_rate=205743 (inst/sec) elapsed = 0:0:00:32 / Sun Feb 28 21:32:05 2016
GPGPU-Sim PTX: 6700000 instructions simulated : ctaid=(54,0,0) tid=(31,0,0)
GPGPU-Sim PTX: 6800000 instructions simulated : ctaid=(70,0,0) tid=(95,0,0)
GPGPU-Sim PTX: 6900000 instructions simulated : ctaid=(1,0,0) tid=(31,0,0)
GPGPU-Sim PTX: 7000000 instructions simulated : ctaid=(46,0,0) tid=(95,0,0)
GPGPU-Sim PTX: 7100000 instructions simulated : ctaid=(24,0,0) tid=(63,0,0)
GPGPU-Sim PTX: 7200000 instructions simulated : ctaid=(65,0,0) tid=(31,0,0)
GPGPU-Sim uArch: cycles simulated: 14000  inst.: 7178368 (ipc=512.7) sim_rate=217526 (inst/sec) elapsed = 0:0:00:33 / Sun Feb 28 21:32:06 2016
GPGPU-Sim PTX: 7300000 instructions simulated : ctaid=(61,0,0) tid=(95,0,0)
GPGPU-Sim PTX: 7400000 instructions simulated : ctaid=(10,0,0) tid=(95,0,0)
GPGPU-Sim PTX: 7500000 instructions simulated : ctaid=(90,0,0) tid=(31,0,0)
GPGPU-Sim PTX: 7600000 instructions simulated : ctaid=(9,0,0) tid=(95,0,0)
GPGPU-Sim PTX: 7700000 instructions simulated : ctaid=(27,0,0) tid=(95,0,0)
GPGPU-Sim PTX: 7800000 instructions simulated : ctaid=(73,0,0) tid=(95,0,0)
GPGPU-Sim uArch: cycles simulated: 15000  inst.: 7804064 (ipc=520.3) sim_rate=229531 (inst/sec) elapsed = 0:0:00:34 / Sun Feb 28 21:32:07 2016
GPGPU-Sim PTX: 7900000 instructions simulated : ctaid=(43,0,0) tid=(95,0,0)
GPGPU-Sim PTX: 8000000 instructions simulated : ctaid=(86,0,0) tid=(127,0,0)
GPGPU-Sim PTX: 8100000 instructions simulated : ctaid=(48,0,0) tid=(95,0,0)
GPGPU-Sim PTX: 8200000 instructions simulated : ctaid=(61,0,0) tid=(95,0,0)
GPGPU-Sim PTX: 8300000 instructions simulated : ctaid=(6,0,0) tid=(63,0,0)
GPGPU-Sim PTX: 8400000 instructions simulated : ctaid=(8,0,0) tid=(63,0,0)
GPGPU-Sim uArch: cycles simulated: 16000  inst.: 8410496 (ipc=525.7) sim_rate=240299 (inst/sec) elapsed = 0:0:00:35 / Sun Feb 28 21:32:08 2016
GPGPU-Sim PTX: 8500000 instructions simulated : ctaid=(67,0,0) tid=(63,0,0)
GPGPU-Sim PTX: 8600000 instructions simulated : ctaid=(25,0,0) tid=(95,0,0)
GPGPU-Sim PTX: 8700000 instructions simulated : ctaid=(28,0,0) tid=(63,0,0)
GPGPU-Sim PTX: 8800000 instructions simulated : ctaid=(55,0,0) tid=(31,0,0)
GPGPU-Sim PTX: 8900000 instructions simulated : ctaid=(83,0,0) tid=(63,0,0)
GPGPU-Sim PTX: 9000000 instructions simulated : ctaid=(0,0,0) tid=(127,0,0)
GPGPU-Sim uArch: cycles simulated: 17000  inst.: 9004896 (ipc=529.7) sim_rate=250136 (inst/sec) elapsed = 0:0:00:36 / Sun Feb 28 21:32:09 2016
GPGPU-Sim PTX: 9100000 instructions simulated : ctaid=(26,0,0) tid=(95,0,0)
GPGPU-Sim PTX: 9200000 instructions simulated : ctaid=(47,0,0) tid=(127,0,0)
GPGPU-Sim PTX: 9300000 instructions simulated : ctaid=(42,0,0) tid=(127,0,0)
GPGPU-Sim PTX: 9400000 instructions simulated : ctaid=(13,0,0) tid=(31,0,0)
GPGPU-Sim PTX: 9500000 instructions simulated : ctaid=(44,0,0) tid=(95,0,0)
GPGPU-Sim PTX: 9600000 instructions simulated : ctaid=(30,0,0) tid=(63,0,0)
GPGPU-Sim uArch: cycles simulated: 18000  inst.: 9588640 (ipc=532.7) sim_rate=259152 (inst/sec) elapsed = 0:0:00:37 / Sun Feb 28 21:32:10 2016
GPGPU-Sim PTX: 9700000 instructions simulated : ctaid=(65,0,0) tid=(127,0,0)
GPGPU-Sim PTX: 9800000 instructions simulated : ctaid=(0,0,0) tid=(95,0,0)
GPGPU-Sim PTX: 9900000 instructions simulated : ctaid=(115,0,0) tid=(31,0,0)
GPGPU-Sim PTX: 10000000 instructions simulated : ctaid=(106,0,0) tid=(31,0,0)
GPGPU-Sim PTX: 10100000 instructions simulated : ctaid=(69,0,0) tid=(127,0,0)
GPGPU-Sim PTX: 10200000 instructions simulated : ctaid=(46,0,0) tid=(127,0,0)
GPGPU-Sim uArch: cycles simulated: 19000  inst.: 10199488 (ipc=536.8) sim_rate=268407 (inst/sec) elapsed = 0:0:00:38 / Sun Feb 28 21:32:11 2016
GPGPU-Sim PTX: 10300000 instructions simulated : ctaid=(61,0,0) tid=(127,0,0)
GPGPU-Sim PTX: 10400000 instructions simulated : ctaid=(48,0,0) tid=(127,0,0)
GPGPU-Sim PTX: 10500000 instructions simulated : ctaid=(20,0,0) tid=(95,0,0)
GPGPU-Sim PTX: 10600000 instructions simulated : ctaid=(22,0,0) tid=(95,0,0)
GPGPU-Sim PTX: 10700000 instructions simulated : ctaid=(23,0,0) tid=(95,0,0)
GPGPU-Sim PTX: 10800000 instructions simulated : ctaid=(59,0,0) tid=(31,0,0)
GPGPU-Sim uArch: cycles simulated: 20000  inst.: 10796992 (ipc=539.8) sim_rate=276845 (inst/sec) elapsed = 0:0:00:39 / Sun Feb 28 21:32:12 2016
GPGPU-Sim PTX: 10900000 instructions simulated : ctaid=(73,0,0) tid=(63,0,0)
GPGPU-Sim PTX: 11000000 instructions simulated : ctaid=(3,0,0) tid=(31,0,0)
GPGPU-Sim PTX: 11100000 instructions simulated : ctaid=(4,0,0) tid=(63,0,0)
GPGPU-Sim PTX: 11200000 instructions simulated : ctaid=(14,0,0) tid=(127,0,0)
GPGPU-Sim PTX: 11300000 instructions simulated : ctaid=(88,0,0) tid=(95,0,0)
GPGPU-Sim PTX: 11400000 instructions simulated : ctaid=(81,0,0) tid=(95,0,0)
GPGPU-Sim uArch: cycles simulated: 21000  inst.: 11379584 (ipc=541.9) sim_rate=284489 (inst/sec) elapsed = 0:0:00:40 / Sun Feb 28 21:32:13 2016
GPGPU-Sim PTX: 11500000 instructions simulated : ctaid=(54,0,0) tid=(95,0,0)
GPGPU-Sim PTX: 11600000 instructions simulated : ctaid=(19,0,0) tid=(95,0,0)
GPGPU-Sim PTX: 11700000 instructions simulated : ctaid=(20,0,0) tid=(63,0,0)
GPGPU-Sim PTX: 11800000 instructions simulated : ctaid=(12,0,0) tid=(127,0,0)
GPGPU-Sim PTX: 11900000 instructions simulated : ctaid=(63,0,0) tid=(95,0,0)
GPGPU-Sim PTX: 12000000 instructions simulated : ctaid=(53,0,0) tid=(95,0,0)
GPGPU-Sim PTX: 12100000 instructions simulated : ctaid=(56,0,0) tid=(95,0,0)
GPGPU-Sim PTX: 12200000 instructions simulated : ctaid=(15,0,0) tid=(31,0,0)
GPGPU-Sim uArch: cycles simulated: 22500  inst.: 12241888 (ipc=544.1) sim_rate=298582 (inst/sec) elapsed = 0:0:00:41 / Sun Feb 28 21:32:14 2016
GPGPU-Sim PTX: 12300000 instructions simulated : ctaid=(29,0,0) tid=(95,0,0)
GPGPU-Sim PTX: 12400000 instructions simulated : ctaid=(84,0,0) tid=(95,0,0)
GPGPU-Sim PTX: 12500000 instructions simulated : ctaid=(27,0,0) tid=(127,0,0)
GPGPU-Sim PTX: 12600000 instructions simulated : ctaid=(47,0,0) tid=(63,0,0)
GPGPU-Sim PTX: 12700000 instructions simulated : ctaid=(43,0,0) tid=(95,0,0)
GPGPU-Sim PTX: 12800000 instructions simulated : ctaid=(45,0,0) tid=(127,0,0)
GPGPU-Sim uArch: cycles simulated: 23500  inst.: 12799680 (ipc=544.7) sim_rate=304754 (inst/sec) elapsed = 0:0:00:42 / Sun Feb 28 21:32:15 2016
GPGPU-Sim PTX: 12900000 instructions simulated : ctaid=(23,0,0) tid=(127,0,0)
GPGPU-Sim PTX: 13000000 instructions simulated : ctaid=(6,0,0) tid=(31,0,0)
GPGPU-Sim PTX: 13100000 instructions simulated : ctaid=(67,0,0) tid=(95,0,0)
GPGPU-Sim PTX: 13200000 instructions simulated : ctaid=(58,0,0) tid=(95,0,0)
GPGPU-Sim PTX: 13300000 instructions simulated : ctaid=(18,0,0) tid=(63,0,0)
GPGPU-Sim PTX: 13400000 instructions simulated : ctaid=(117,0,0) tid=(95,0,0)
GPGPU-Sim uArch: cycles simulated: 24500  inst.: 13371264 (ipc=545.8) sim_rate=310959 (inst/sec) elapsed = 0:0:00:43 / Sun Feb 28 21:32:16 2016
GPGPU-Sim PTX: 13500000 instructions simulated : ctaid=(36,0,0) tid=(63,0,0)
GPGPU-Sim PTX: 13600000 instructions simulated : ctaid=(10,0,0) tid=(31,0,0)
GPGPU-Sim PTX: 13700000 instructions simulated : ctaid=(105,0,0) tid=(63,0,0)
GPGPU-Sim PTX: 13800000 instructions simulated : ctaid=(44,0,0) tid=(127,0,0)
GPGPU-Sim PTX: 13900000 instructions simulated : ctaid=(26,0,0) tid=(95,0,0)
GPGPU-Sim uArch: cycles simulated: 25500  inst.: 13929120 (ipc=546.2) sim_rate=316570 (inst/sec) elapsed = 0:0:00:44 / Sun Feb 28 21:32:17 2016
GPGPU-Sim PTX: 14000000 instructions simulated : ctaid=(80,0,0) tid=(63,0,0)
GPGPU-Sim PTX: 14100000 instructions simulated : ctaid=(31,0,0) tid=(95,0,0)
GPGPU-Sim PTX: 14200000 instructions simulated : ctaid=(16,0,0) tid=(95,0,0)
GPGPU-Sim PTX: 14300000 instructions simulated : ctaid=(77,0,0) tid=(31,0,0)
GPGPU-Sim PTX: 14400000 instructions simulated : ctaid=(28,0,0) tid=(127,0,0)
GPGPU-Sim PTX: 14500000 instructions simulated : ctaid=(98,0,0) tid=(95,0,0)
GPGPU-Sim uArch: cycles simulated: 26500  inst.: 14513376 (ipc=547.7) sim_rate=322519 (inst/sec) elapsed = 0:0:00:45 / Sun Feb 28 21:32:18 2016
GPGPU-Sim PTX: 14600000 instructions simulated : ctaid=(54,0,0) tid=(31,0,0)
GPGPU-Sim PTX: 14700000 instructions simulated : ctaid=(31,0,0) tid=(95,0,0)
GPGPU-Sim PTX: 14800000 instructions simulated : ctaid=(64,0,0) tid=(95,0,0)
GPGPU-Sim PTX: 14900000 instructions simulated : ctaid=(19,0,0) tid=(127,0,0)
GPGPU-Sim PTX: 15000000 instructions simulated : ctaid=(64,0,0) tid=(95,0,0)
GPGPU-Sim PTX: 15100000 instructions simulated : ctaid=(37,0,0) tid=(31,0,0)
GPGPU-Sim uArch: cycles simulated: 27500  inst.: 15091072 (ipc=548.8) sim_rate=328066 (inst/sec) elapsed = 0:0:00:46 / Sun Feb 28 21:32:19 2016
GPGPU-Sim PTX: 15200000 instructions simulated : ctaid=(3,0,0) tid=(95,0,0)
GPGPU-Sim PTX: 15300000 instructions simulated : ctaid=(38,0,0) tid=(31,0,0)
GPGPU-Sim PTX: 15400000 instructions simulated : ctaid=(69,0,0) tid=(95,0,0)
GPGPU-Sim PTX: 15500000 instructions simulated : ctaid=(25,0,0) tid=(127,0,0)
GPGPU-Sim PTX: 15600000 instructions simulated : ctaid=(4,0,0) tid=(95,0,0)
GPGPU-Sim PTX: 15700000 instructions simulated : ctaid=(100,0,0) tid=(31,0,0)
GPGPU-Sim PTX: 15800000 instructions simulated : ctaid=(5,0,0) tid=(127,0,0)
GPGPU-Sim PTX: 15900000 instructions simulated : ctaid=(74,0,0) tid=(63,0,0)
GPGPU-Sim uArch: cycles simulated: 29000  inst.: 15924768 (ipc=549.1) sim_rate=338824 (inst/sec) elapsed = 0:0:00:47 / Sun Feb 28 21:32:20 2016
GPGPU-Sim PTX: 16000000 instructions simulated : ctaid=(58,0,0) tid=(95,0,0)
GPGPU-Sim PTX: 16100000 instructions simulated : ctaid=(43,0,0) tid=(95,0,0)
GPGPU-Sim PTX: 16200000 instructions simulated : ctaid=(40,0,0) tid=(95,0,0)
GPGPU-Sim PTX: 16300000 instructions simulated : ctaid=(15,0,0) tid=(31,0,0)
GPGPU-Sim PTX: 16400000 instructions simulated : ctaid=(93,0,0) tid=(95,0,0)
GPGPU-Sim PTX: 16500000 instructions simulated : ctaid=(13,0,0) tid=(127,0,0)
GPGPU-Sim uArch: cycles simulated: 30000  inst.: 16530464 (ipc=551.0) sim_rate=344384 (inst/sec) elapsed = 0:0:00:48 / Sun Feb 28 21:32:21 2016
GPGPU-Sim PTX: 16600000 instructions simulated : ctaid=(22,0,0) tid=(127,0,0)
GPGPU-Sim PTX: 16700000 instructions simulated : ctaid=(47,0,0) tid=(31,0,0)
GPGPU-Sim PTX: 16800000 instructions simulated : ctaid=(108,0,0) tid=(63,0,0)
GPGPU-Sim PTX: 16900000 instructions simulated : ctaid=(36,0,0) tid=(127,0,0)
GPGPU-Sim PTX: 17000000 instructions simulated : ctaid=(20,0,0) tid=(63,0,0)
GPGPU-Sim PTX: 17100000 instructions simulated : ctaid=(62,0,0) tid=(95,0,0)
GPGPU-Sim uArch: cycles simulated: 31000  inst.: 17129280 (ipc=552.6) sim_rate=349577 (inst/sec) elapsed = 0:0:00:49 / Sun Feb 28 21:32:22 2016
GPGPU-Sim PTX: 17200000 instructions simulated : ctaid=(75,0,0) tid=(63,0,0)
GPGPU-Sim PTX: 17300000 instructions simulated : ctaid=(53,0,0) tid=(31,0,0)
GPGPU-Sim PTX: 17400000 instructions simulated : ctaid=(63,0,0) tid=(127,0,0)
GPGPU-Sim PTX: 17500000 instructions simulated : ctaid=(54,0,0) tid=(63,0,0)
GPGPU-Sim PTX: 17600000 instructions simulated : ctaid=(45,0,0) tid=(31,0,0)
GPGPU-Sim PTX: 17700000 instructions simulated : ctaid=(52,0,0) tid=(31,0,0)
GPGPU-Sim uArch: cycles simulated: 32000  inst.: 17712192 (ipc=553.5) sim_rate=354243 (inst/sec) elapsed = 0:0:00:50 / Sun Feb 28 21:32:23 2016
GPGPU-Sim PTX: 17800000 instructions simulated : ctaid=(38,0,0) tid=(63,0,0)
GPGPU-Sim PTX: 17900000 instructions simulated : ctaid=(26,0,0) tid=(31,0,0)
GPGPU-Sim PTX: 18000000 instructions simulated : ctaid=(23,0,0) tid=(95,0,0)
GPGPU-Sim PTX: 18100000 instructions simulated : ctaid=(69,0,0) tid=(63,0,0)
GPGPU-Sim PTX: 18200000 instructions simulated : ctaid=(69,0,0) tid=(127,0,0)
GPGPU-Sim PTX: 18300000 instructions simulated : ctaid=(9,0,0) tid=(127,0,0)
GPGPU-Sim uArch: cycles simulated: 33000  inst.: 18291648 (ipc=554.3) sim_rate=358659 (inst/sec) elapsed = 0:0:00:51 / Sun Feb 28 21:32:24 2016
GPGPU-Sim PTX: 18400000 instructions simulated : ctaid=(0,0,0) tid=(31,0,0)
GPGPU-Sim PTX: 18500000 instructions simulated : ctaid=(13,0,0) tid=(95,0,0)
GPGPU-Sim PTX: 18600000 instructions simulated : ctaid=(95,0,0) tid=(31,0,0)
GPGPU-Sim PTX: 18700000 instructions simulated : ctaid=(98,0,0) tid=(31,0,0)
GPGPU-Sim PTX: 18800000 instructions simulated : ctaid=(98,0,0) tid=(31,0,0)
GPGPU-Sim PTX: 18900000 instructions simulated : ctaid=(54,0,0) tid=(95,0,0)
GPGPU-Sim uArch: cycles simulated: 34000  inst.: 18870976 (ipc=555.0) sim_rate=362903 (inst/sec) elapsed = 0:0:00:52 / Sun Feb 28 21:32:25 2016
GPGPU-Sim PTX: 19000000 instructions simulated : ctaid=(29,0,0) tid=(95,0,0)
GPGPU-Sim PTX: 19100000 instructions simulated : ctaid=(45,0,0) tid=(127,0,0)
GPGPU-Sim PTX: 19200000 instructions simulated : ctaid=(25,0,0) tid=(127,0,0)
GPGPU-Sim PTX: 19300000 instructions simulated : ctaid=(84,0,0) tid=(31,0,0)
GPGPU-Sim PTX: 19400000 instructions simulated : ctaid=(86,0,0) tid=(95,0,0)
GPGPU-Sim uArch: cycles simulated: 35000  inst.: 19452544 (ipc=555.8) sim_rate=367029 (inst/sec) elapsed = 0:0:00:53 / Sun Feb 28 21:32:26 2016
GPGPU-Sim PTX: 19500000 instructions simulated : ctaid=(0,0,0) tid=(95,0,0)
GPGPU-Sim PTX: 19600000 instructions simulated : ctaid=(73,0,0) tid=(63,0,0)
GPGPU-Sim PTX: 19700000 instructions simulated : ctaid=(100,0,0) tid=(95,0,0)
GPGPU-Sim PTX: 19800000 instructions simulated : ctaid=(76,0,0) tid=(63,0,0)
GPGPU-Sim PTX: 19900000 instructions simulated : ctaid=(66,0,0) tid=(31,0,0)
GPGPU-Sim PTX: 20000000 instructions simulated : ctaid=(48,0,0) tid=(31,0,0)
GPGPU-Sim PTX: 20100000 instructions simulated : ctaid=(73,0,0) tid=(31,0,0)
GPGPU-Sim PTX: 20200000 instructions simulated : ctaid=(66,0,0) tid=(63,0,0)
GPGPU-Sim PTX: 20300000 instructions simulated : ctaid=(54,0,0) tid=(127,0,0)
GPGPU-Sim uArch: cycles simulated: 36500  inst.: 20340896 (ipc=557.3) sim_rate=376683 (inst/sec) elapsed = 0:0:00:54 / Sun Feb 28 21:32:27 2016
GPGPU-Sim PTX: 20400000 instructions simulated : ctaid=(41,0,0) tid=(127,0,0)
GPGPU-Sim PTX: 20500000 instructions simulated : ctaid=(89,0,0) tid=(31,0,0)
GPGPU-Sim PTX: 20600000 instructions simulated : ctaid=(56,0,0) tid=(31,0,0)
GPGPU-Sim PTX: 20700000 instructions simulated : ctaid=(0,0,0) tid=(31,0,0)
GPGPU-Sim PTX: 20800000 instructions simulated : ctaid=(25,0,0) tid=(95,0,0)
GPGPU-Sim PTX: 20900000 instructions simulated : ctaid=(53,0,0) tid=(95,0,0)
GPGPU-Sim uArch: cycles simulated: 37500  inst.: 20942944 (ipc=558.5) sim_rate=380780 (inst/sec) elapsed = 0:0:00:55 / Sun Feb 28 21:32:28 2016
GPGPU-Sim PTX: 21000000 instructions simulated : ctaid=(48,0,0) tid=(31,0,0)
GPGPU-Sim PTX: 21100000 instructions simulated : ctaid=(85,0,0) tid=(127,0,0)
GPGPU-Sim PTX: 21200000 instructions simulated : ctaid=(58,0,0) tid=(95,0,0)
GPGPU-Sim PTX: 21300000 instructions simulated : ctaid=(52,0,0) tid=(63,0,0)
GPGPU-Sim PTX: 21400000 instructions simulated : ctaid=(16,0,0) tid=(95,0,0)
GPGPU-Sim PTX: 21500000 instructions simulated : ctaid=(50,0,0) tid=(31,0,0)
GPGPU-Sim uArch: cycles simulated: 38500  inst.: 21509952 (ipc=558.7) sim_rate=384106 (inst/sec) elapsed = 0:0:00:56 / Sun Feb 28 21:32:29 2016
GPGPU-Sim PTX: 21600000 instructions simulated : ctaid=(58,0,0) tid=(31,0,0)
GPGPU-Sim PTX: 21700000 instructions simulated : ctaid=(113,0,0) tid=(127,0,0)
GPGPU-Sim PTX: 21800000 instructions simulated : ctaid=(60,0,0) tid=(127,0,0)
GPGPU-Sim PTX: 21900000 instructions simulated : ctaid=(105,0,0) tid=(63,0,0)
GPGPU-Sim PTX: 22000000 instructions simulated : ctaid=(89,0,0) tid=(31,0,0)
GPGPU-Sim PTX: 22100000 instructions simulated : ctaid=(93,0,0) tid=(127,0,0)
GPGPU-Sim uArch: cycles simulated: 39500  inst.: 22082944 (ipc=559.1) sim_rate=387420 (inst/sec) elapsed = 0:0:00:57 / Sun Feb 28 21:32:30 2016
GPGPU-Sim PTX: 22200000 instructions simulated : ctaid=(87,0,0) tid=(31,0,0)
GPGPU-Sim PTX: 22300000 instructions simulated : ctaid=(38,0,0) tid=(127,0,0)
GPGPU-Sim PTX: 22400000 instructions simulated : ctaid=(83,0,0) tid=(63,0,0)
GPGPU-Sim PTX: 22500000 instructions simulated : ctaid=(15,0,0) tid=(127,0,0)
GPGPU-Sim PTX: 22600000 instructions simulated : ctaid=(71,0,0) tid=(127,0,0)
GPGPU-Sim PTX: 22700000 instructions simulated : ctaid=(3,0,0) tid=(95,0,0)
GPGPU-Sim uArch: cycles simulated: 40500  inst.: 22681504 (ipc=560.0) sim_rate=391060 (inst/sec) elapsed = 0:0:00:58 / Sun Feb 28 21:32:31 2016
GPGPU-Sim PTX: 22800000 instructions simulated : ctaid=(15,0,0) tid=(127,0,0)
GPGPU-Sim PTX: 22900000 instructions simulated : ctaid=(117,0,0) tid=(127,0,0)
GPGPU-Sim PTX: 23000000 instructions simulated : ctaid=(16,0,0) tid=(127,0,0)
GPGPU-Sim PTX: 23100000 instructions simulated : ctaid=(36,0,0) tid=(95,0,0)
GPGPU-Sim PTX: 23200000 instructions simulated : ctaid=(2,0,0) tid=(95,0,0)
GPGPU-Sim uArch: cycles simulated: 41500  inst.: 23253344 (ipc=560.3) sim_rate=394124 (inst/sec) elapsed = 0:0:00:59 / Sun Feb 28 21:32:32 2016
GPGPU-Sim PTX: 23300000 instructions simulated : ctaid=(26,0,0) tid=(63,0,0)
GPGPU-Sim PTX: 23400000 instructions simulated : ctaid=(82,0,0) tid=(31,0,0)
GPGPU-Sim PTX: 23500000 instructions simulated : ctaid=(13,0,0) tid=(31,0,0)
GPGPU-Sim PTX: 23600000 instructions simulated : ctaid=(24,0,0) tid=(127,0,0)
GPGPU-Sim PTX: 23700000 instructions simulated : ctaid=(103,0,0) tid=(31,0,0)
GPGPU-Sim PTX: 23800000 instructions simulated : ctaid=(11,0,0) tid=(95,0,0)
GPGPU-Sim uArch: cycles simulated: 42500  inst.: 23849216 (ipc=561.2) sim_rate=397486 (inst/sec) elapsed = 0:0:01:00 / Sun Feb 28 21:32:33 2016
GPGPU-Sim PTX: 23900000 instructions simulated : ctaid=(0,0,0) tid=(95,0,0)
GPGPU-Sim PTX: 24000000 instructions simulated : ctaid=(23,0,0) tid=(31,0,0)
GPGPU-Sim PTX: 24100000 instructions simulated : ctaid=(48,0,0) tid=(63,0,0)
GPGPU-Sim PTX: 24200000 instructions simulated : ctaid=(6,0,0) tid=(31,0,0)
GPGPU-Sim PTX: 24300000 instructions simulated : ctaid=(37,0,0) tid=(127,0,0)
GPGPU-Sim PTX: 24400000 instructions simulated : ctaid=(39,0,0) tid=(63,0,0)
GPGPU-Sim PTX: 24500000 instructions simulated : ctaid=(45,0,0) tid=(31,0,0)
GPGPU-Sim PTX: 24600000 instructions simulated : ctaid=(66,0,0) tid=(31,0,0)
GPGPU-Sim PTX: 24700000 instructions simulated : ctaid=(18,0,0) tid=(127,0,0)
GPGPU-Sim uArch: cycles simulated: 44000  inst.: 24702208 (ipc=561.4) sim_rate=404954 (inst/sec) elapsed = 0:0:01:01 / Sun Feb 28 21:32:34 2016
GPGPU-Sim PTX: 24800000 instructions simulated : ctaid=(108,0,0) tid=(31,0,0)
GPGPU-Sim PTX: 24900000 instructions simulated : ctaid=(51,0,0) tid=(95,0,0)
GPGPU-Sim PTX: 25000000 instructions simulated : ctaid=(86,0,0) tid=(95,0,0)
GPGPU-Sim PTX: 25100000 instructions simulated : ctaid=(78,0,0) tid=(95,0,0)
GPGPU-Sim PTX: 25200000 instructions simulated : ctaid=(66,0,0) tid=(127,0,0)
GPGPU-Sim PTX: 25300000 instructions simulated : ctaid=(87,0,0) tid=(95,0,0)
GPGPU-Sim uArch: cycles simulated: 45000  inst.: 25281888 (ipc=561.8) sim_rate=407772 (inst/sec) elapsed = 0:0:01:02 / Sun Feb 28 21:32:35 2016
GPGPU-Sim PTX: 25400000 instructions simulated : ctaid=(80,0,0) tid=(31,0,0)
GPGPU-Sim PTX: 25500000 instructions simulated : ctaid=(61,0,0) tid=(31,0,0)
GPGPU-Sim PTX: 25600000 instructions simulated : ctaid=(75,0,0) tid=(31,0,0)
GPGPU-Sim PTX: 25700000 instructions simulated : ctaid=(38,0,0) tid=(95,0,0)
GPGPU-Sim PTX: 25800000 instructions simulated : ctaid=(45,0,0) tid=(31,0,0)
GPGPU-Sim PTX: 25900000 instructions simulated : ctaid=(38,0,0) tid=(127,0,0)
GPGPU-Sim uArch: cycles simulated: 46000  inst.: 25886240 (ipc=562.7) sim_rate=410892 (inst/sec) elapsed = 0:0:01:03 / Sun Feb 28 21:32:36 2016
GPGPU-Sim PTX: 26000000 instructions simulated : ctaid=(25,0,0) tid=(95,0,0)
GPGPU-Sim PTX: 26100000 instructions simulated : ctaid=(67,0,0) tid=(31,0,0)
GPGPU-Sim PTX: 26200000 instructions simulated : ctaid=(16,0,0) tid=(63,0,0)
GPGPU-Sim PTX: 26300000 instructions simulated : ctaid=(14,0,0) tid=(63,0,0)
GPGPU-Sim PTX: 26400000 instructions simulated : ctaid=(19,0,0) tid=(95,0,0)
GPGPU-Sim PTX: 26500000 instructions simulated : ctaid=(28,0,0) tid=(95,0,0)
GPGPU-Sim uArch: cycles simulated: 47000  inst.: 26485920 (ipc=563.5) sim_rate=413842 (inst/sec) elapsed = 0:0:01:04 / Sun Feb 28 21:32:37 2016
GPGPU-Sim PTX: 26600000 instructions simulated : ctaid=(71,0,0) tid=(127,0,0)
GPGPU-Sim PTX: 26700000 instructions simulated : ctaid=(83,0,0) tid=(127,0,0)
GPGPU-Sim PTX: 26800000 instructions simulated : ctaid=(90,0,0) tid=(95,0,0)
GPGPU-Sim PTX: 26900000 instructions simulated : ctaid=(45,0,0) tid=(127,0,0)
GPGPU-Sim PTX: 27000000 instructions simulated : ctaid=(8,0,0) tid=(63,0,0)
GPGPU-Sim uArch: cycles simulated: 48000  inst.: 27049344 (ipc=563.5) sim_rate=416143 (inst/sec) elapsed = 0:0:01:05 / Sun Feb 28 21:32:38 2016
GPGPU-Sim PTX: 27100000 instructions simulated : ctaid=(73,0,0) tid=(127,0,0)
GPGPU-Sim PTX: 27200000 instructions simulated : ctaid=(67,0,0) tid=(95,0,0)
GPGPU-Sim PTX: 27300000 instructions simulated : ctaid=(41,0,0) tid=(127,0,0)
GPGPU-Sim PTX: 27400000 instructions simulated : ctaid=(5,0,0) tid=(63,0,0)
GPGPU-Sim PTX: 27500000 instructions simulated : ctaid=(0,0,0) tid=(31,0,0)
GPGPU-Sim PTX: 27600000 instructions simulated : ctaid=(70,0,0) tid=(63,0,0)
GPGPU-Sim uArch: cycles simulated: 49000  inst.: 27630080 (ipc=563.9) sim_rate=418637 (inst/sec) elapsed = 0:0:01:06 / Sun Feb 28 21:32:39 2016
GPGPU-Sim PTX: 27700000 instructions simulated : ctaid=(72,0,0) tid=(31,0,0)
GPGPU-Sim PTX: 27800000 instructions simulated : ctaid=(85,0,0) tid=(31,0,0)
GPGPU-Sim PTX: 27900000 instructions simulated : ctaid=(18,0,0) tid=(63,0,0)
GPGPU-Sim PTX: 28000000 instructions simulated : ctaid=(62,0,0) tid=(95,0,0)
GPGPU-Sim PTX: 28100000 instructions simulated : ctaid=(57,0,0) tid=(127,0,0)
GPGPU-Sim PTX: 28200000 instructions simulated : ctaid=(5,0,0) tid=(31,0,0)
GPGPU-Sim uArch: cycles simulated: 50000  inst.: 28258560 (ipc=565.2) sim_rate=421769 (inst/sec) elapsed = 0:0:01:07 / Sun Feb 28 21:32:40 2016
GPGPU-Sim PTX: 28300000 instructions simulated : ctaid=(45,0,0) tid=(127,0,0)
GPGPU-Sim PTX: 28400000 instructions simulated : ctaid=(60,0,0) tid=(127,0,0)
GPGPU-Sim PTX: 28500000 instructions simulated : ctaid=(77,0,0) tid=(63,0,0)
GPGPU-Sim PTX: 28600000 instructions simulated : ctaid=(34,0,0) tid=(63,0,0)
GPGPU-Sim PTX: 28700000 instructions simulated : ctaid=(36,0,0) tid=(63,0,0)
GPGPU-Sim PTX: 28800000 instructions simulated : ctaid=(77,0,0) tid=(127,0,0)
GPGPU-Sim uArch: cycles simulated: 51000  inst.: 28837440 (ipc=565.4) sim_rate=424080 (inst/sec) elapsed = 0:0:01:08 / Sun Feb 28 21:32:41 2016
GPGPU-Sim PTX: 28900000 instructions simulated : ctaid=(41,0,0) tid=(95,0,0)
GPGPU-Sim PTX: 29000000 instructions simulated : ctaid=(34,0,0) tid=(95,0,0)
GPGPU-Sim PTX: 29100000 instructions simulated : ctaid=(39,0,0) tid=(63,0,0)
GPGPU-Sim PTX: 29200000 instructions simulated : ctaid=(46,0,0) tid=(63,0,0)
GPGPU-Sim PTX: 29300000 instructions simulated : ctaid=(103,0,0) tid=(63,0,0)
GPGPU-Sim PTX: 29400000 instructions simulated : ctaid=(65,0,0) tid=(63,0,0)
GPGPU-Sim PTX: 29500000 instructions simulated : ctaid=(80,0,0) tid=(31,0,0)
GPGPU-Sim PTX: 29600000 instructions simulated : ctaid=(57,0,0) tid=(31,0,0)
GPGPU-Sim PTX: 29700000 instructions simulated : ctaid=(16,0,0) tid=(63,0,0)
GPGPU-Sim uArch: cycles simulated: 52500  inst.: 29705760 (ipc=565.8) sim_rate=430518 (inst/sec) elapsed = 0:0:01:09 / Sun Feb 28 21:32:42 2016
GPGPU-Sim PTX: 29800000 instructions simulated : ctaid=(25,0,0) tid=(31,0,0)
GPGPU-Sim PTX: 29900000 instructions simulated : ctaid=(37,0,0) tid=(63,0,0)
GPGPU-Sim PTX: 30000000 instructions simulated : ctaid=(55,0,0) tid=(63,0,0)
GPGPU-Sim PTX: 30100000 instructions simulated : ctaid=(115,0,0) tid=(31,0,0)
GPGPU-Sim PTX: 30200000 instructions simulated : ctaid=(59,0,0) tid=(95,0,0)
GPGPU-Sim PTX: 30300000 instructions simulated : ctaid=(8,0,0) tid=(31,0,0)
GPGPU-Sim uArch: cycles simulated: 53500  inst.: 30296192 (ipc=566.3) sim_rate=432802 (inst/sec) elapsed = 0:0:01:10 / Sun Feb 28 21:32:43 2016
GPGPU-Sim PTX: 30400000 instructions simulated : ctaid=(25,0,0) tid=(127,0,0)
GPGPU-Sim PTX: 30500000 instructions simulated : ctaid=(2,0,0) tid=(63,0,0)
GPGPU-Sim PTX: 30600000 instructions simulated : ctaid=(17,0,0) tid=(31,0,0)
GPGPU-Sim PTX: 30700000 instructions simulated : ctaid=(110,0,0) tid=(63,0,0)
GPGPU-Sim PTX: 30800000 instructions simulated : ctaid=(97,0,0) tid=(31,0,0)
GPGPU-Sim PTX: 30900000 instructions simulated : ctaid=(63,0,0) tid=(63,0,0)
GPGPU-Sim uArch: cycles simulated: 54500  inst.: 30879392 (ipc=566.6) sim_rate=434921 (inst/sec) elapsed = 0:0:01:11 / Sun Feb 28 21:32:44 2016
GPGPU-Sim PTX: 31000000 instructions simulated : ctaid=(8,0,0) tid=(127,0,0)
GPGPU-Sim PTX: 31100000 instructions simulated : ctaid=(22,0,0) tid=(95,0,0)
GPGPU-Sim PTX: 31200000 instructions simulated : ctaid=(30,0,0) tid=(127,0,0)
GPGPU-Sim PTX: 31300000 instructions simulated : ctaid=(71,0,0) tid=(95,0,0)
GPGPU-Sim PTX: 31400000 instructions simulated : ctaid=(59,0,0) tid=(95,0,0)
GPGPU-Sim uArch: cycles simulated: 55500  inst.: 31442112 (ipc=566.5) sim_rate=436696 (inst/sec) elapsed = 0:0:01:12 / Sun Feb 28 21:32:45 2016
GPGPU-Sim PTX: 31500000 instructions simulated : ctaid=(1,0,0) tid=(31,0,0)
GPGPU-Sim PTX: 31600000 instructions simulated : ctaid=(39,0,0) tid=(31,0,0)
GPGPU-Sim PTX: 31700000 instructions simulated : ctaid=(113,0,0) tid=(31,0,0)
GPGPU-Sim PTX: 31800000 instructions simulated : ctaid=(38,0,0) tid=(127,0,0)
GPGPU-Sim PTX: 31900000 instructions simulated : ctaid=(6,0,0) tid=(127,0,0)
GPGPU-Sim PTX: 32000000 instructions simulated : ctaid=(34,0,0) tid=(63,0,0)
GPGPU-Sim uArch: cycles simulated: 56500  inst.: 32021088 (ipc=566.7) sim_rate=438645 (inst/sec) elapsed = 0:0:01:13 / Sun Feb 28 21:32:46 2016
GPGPU-Sim PTX: 32100000 instructions simulated : ctaid=(51,0,0) tid=(127,0,0)
GPGPU-Sim PTX: 32200000 instructions simulated : ctaid=(64,0,0) tid=(31,0,0)
GPGPU-Sim PTX: 32300000 instructions simulated : ctaid=(34,0,0) tid=(31,0,0)
GPGPU-Sim PTX: 32400000 instructions simulated : ctaid=(64,0,0) tid=(127,0,0)
GPGPU-Sim PTX: 32500000 instructions simulated : ctaid=(5,0,0) tid=(31,0,0)
GPGPU-Sim PTX: 32600000 instructions simulated : ctaid=(86,0,0) tid=(31,0,0)
GPGPU-Sim uArch: cycles simulated: 57500  inst.: 32630304 (ipc=567.5) sim_rate=440950 (inst/sec) elapsed = 0:0:01:14 / Sun Feb 28 21:32:47 2016
GPGPU-Sim PTX: 32700000 instructions simulated : ctaid=(27,0,0) tid=(95,0,0)
GPGPU-Sim PTX: 32800000 instructions simulated : ctaid=(5,0,0) tid=(127,0,0)
GPGPU-Sim PTX: 32900000 instructions simulated : ctaid=(29,0,0) tid=(31,0,0)
GPGPU-Sim PTX: 33000000 instructions simulated : ctaid=(0,0,0) tid=(31,0,0)
GPGPU-Sim PTX: 33100000 instructions simulated : ctaid=(41,0,0) tid=(95,0,0)
GPGPU-Sim PTX: 33200000 instructions simulated : ctaid=(93,0,0) tid=(31,0,0)
GPGPU-Sim PTX: 33300000 instructions simulated : ctaid=(63,0,0) tid=(63,0,0)
GPGPU-Sim PTX: 33400000 instructions simulated : ctaid=(89,0,0) tid=(127,0,0)
GPGPU-Sim PTX: 33500000 instructions simulated : ctaid=(2,0,0) tid=(63,0,0)
GPGPU-Sim uArch: cycles simulated: 59000  inst.: 33490976 (ipc=567.6) sim_rate=446546 (inst/sec) elapsed = 0:0:01:15 / Sun Feb 28 21:32:48 2016
GPGPU-Sim PTX: 33600000 instructions simulated : ctaid=(35,0,0) tid=(127,0,0)
GPGPU-Sim PTX: 33700000 instructions simulated : ctaid=(12,0,0) tid=(31,0,0)
GPGPU-Sim PTX: 33800000 instructions simulated : ctaid=(33,0,0) tid=(127,0,0)
GPGPU-Sim PTX: 33900000 instructions simulated : ctaid=(39,0,0) tid=(127,0,0)
GPGPU-Sim PTX: 34000000 instructions simulated : ctaid=(27,0,0) tid=(127,0,0)
GPGPU-Sim uArch: cycles simulated: 60000  inst.: 34033280 (ipc=567.2) sim_rate=447806 (inst/sec) elapsed = 0:0:01:16 / Sun Feb 28 21:32:49 2016
GPGPU-Sim PTX: 34100000 instructions simulated : ctaid=(77,0,0) tid=(63,0,0)
GPGPU-Sim PTX: 34200000 instructions simulated : ctaid=(34,0,0) tid=(63,0,0)
GPGPU-Sim PTX: 34300000 instructions simulated : ctaid=(78,0,0) tid=(95,0,0)
GPGPU-Sim PTX: 34400000 instructions simulated : ctaid=(40,0,0) tid=(127,0,0)
GPGPU-Sim PTX: 34500000 instructions simulated : ctaid=(92,0,0) tid=(95,0,0)
GPGPU-Sim PTX: 34600000 instructions simulated : ctaid=(66,0,0) tid=(31,0,0)
GPGPU-Sim uArch: cycles simulated: 61000  inst.: 34564896 (ipc=566.6) sim_rate=448894 (inst/sec) elapsed = 0:0:01:17 / Sun Feb 28 21:32:50 2016
GPGPU-Sim PTX: 34700000 instructions simulated : ctaid=(39,0,0) tid=(127,0,0)
GPGPU-Sim PTX: 34800000 instructions simulated : ctaid=(74,0,0) tid=(31,0,0)
GPGPU-Sim PTX: 34900000 instructions simulated : ctaid=(98,0,0) tid=(95,0,0)
GPGPU-Sim PTX: 35000000 instructions simulated : ctaid=(47,0,0) tid=(95,0,0)
GPGPU-Sim PTX: 35100000 instructions simulated : ctaid=(27,0,0) tid=(127,0,0)
GPGPU-Sim uArch: cycles simulated: 62000  inst.: 35099776 (ipc=566.1) sim_rate=449997 (inst/sec) elapsed = 0:0:01:18 / Sun Feb 28 21:32:51 2016
GPGPU-Sim PTX: 35200000 instructions simulated : ctaid=(16,0,0) tid=(63,0,0)
GPGPU-Sim PTX: 35300000 instructions simulated : ctaid=(41,0,0) tid=(127,0,0)
GPGPU-Sim PTX: 35400000 instructions simulated : ctaid=(48,0,0) tid=(63,0,0)
GPGPU-Sim PTX: 35500000 instructions simulated : ctaid=(76,0,0) tid=(31,0,0)
GPGPU-Sim uArch: Shader 12 finished CTA #0 (62830,0), 7 CTAs running
GPGPU-Sim uArch: core: 12, cta: 0 initialized @(62831,0)
GPGPU-Sim PTX: 35600000 instructions simulated : ctaid=(8,0,0) tid=(63,0,0)
GPGPU-Sim PTX: 35700000 instructions simulated : ctaid=(65,0,0) tid=(63,0,0)
GPGPU-Sim PTX: 35800000 instructions simulated : ctaid=(84,0,0) tid=(95,0,0)
GPGPU-Sim uArch: Shader 10 finished CTA #0 (63443,0), 7 CTAs running
GPGPU-Sim uArch: core: 10, cta: 0 initialized @(63444,0)
GPGPU-Sim PTX: 35900000 instructions simulated : ctaid=(52,0,0) tid=(127,0,0)
GPGPU-Sim uArch: cycles simulated: 63500  inst.: 35883264 (ipc=565.1) sim_rate=454218 (inst/sec) elapsed = 0:0:01:19 / Sun Feb 28 21:32:52 2016
GPGPU-Sim PTX: 36000000 instructions simulated : ctaid=(52,0,0) tid=(127,0,0)
GPGPU-Sim PTX: 36100000 instructions simulated : ctaid=(47,0,0) tid=(63,0,0)
GPGPU-Sim PTX: 36200000 instructions simulated : ctaid=(113,0,0) tid=(31,0,0)
GPGPU-Sim uArch: Shader 4 finished CTA #0 (64131,0), 7 CTAs running
GPGPU-Sim uArch: core:  4, cta: 0 initialized @(64132,0)
GPGPU-Sim uArch: Shader 1 finished CTA #0 (64248,0), 7 CTAs running
GPGPU-Sim uArch: core:  1, cta: 0 initialized @(64249,0)
GPGPU-Sim PTX: 36300000 instructions simulated : ctaid=(80,0,0) tid=(31,0,0)
GPGPU-Sim PTX: 36400000 instructions simulated : ctaid=(39,0,0) tid=(127,0,0)
GPGPU-Sim uArch: cycles simulated: 64500  inst.: 36382784 (ipc=564.1) sim_rate=454784 (inst/sec) elapsed = 0:0:01:20 / Sun Feb 28 21:32:53 2016
GPGPU-Sim PTX: 36500000 instructions simulated : ctaid=(38,0,0) tid=(127,0,0)
GPGPU-Sim PTX: 36600000 instructions simulated : ctaid=(102,0,0) tid=(127,0,0)
GPGPU-Sim PTX: 36700000 instructions simulated : ctaid=(40,0,0) tid=(31,0,0)
GPGPU-Sim uArch: Shader 0 finished CTA #0 (65064,0), 7 CTAs running
GPGPU-Sim uArch: core:  0, cta: 0 initialized @(65065,0)
GPGPU-Sim PTX: 36800000 instructions simulated : ctaid=(25,0,0) tid=(127,0,0)
GPGPU-Sim uArch: Shader 9 finished CTA #1 (65246,0), 7 CTAs running
GPGPU-Sim uArch: core:  9, cta: 1 initialized @(65247,0)
GPGPU-Sim PTX: 36900000 instructions simulated : ctaid=(114,0,0) tid=(95,0,0)
GPGPU-Sim uArch: Shader 0 finished CTA #1 (65348,0), 7 CTAs running
GPGPU-Sim uArch: core:  0, cta: 1 initialized @(65349,0)
GPGPU-Sim uArch: cycles simulated: 65500  inst.: 36949568 (ipc=564.1) sim_rate=456167 (inst/sec) elapsed = 0:0:01:21 / Sun Feb 28 21:32:54 2016
GPGPU-Sim PTX: 37000000 instructions simulated : ctaid=(31,0,0) tid=(63,0,0)
GPGPU-Sim uArch: Shader 11 finished CTA #0 (65664,0), 7 CTAs running
GPGPU-Sim uArch: core: 11, cta: 0 initialized @(65665,0)
GPGPU-Sim PTX: 37100000 instructions simulated : ctaid=(68,0,0) tid=(95,0,0)
GPGPU-Sim uArch: Shader 3 finished CTA #0 (65817,0), 7 CTAs running
GPGPU-Sim uArch: core:  3, cta: 0 initialized @(65818,0)
GPGPU-Sim PTX: 37200000 instructions simulated : ctaid=(49,0,0) tid=(63,0,0)
GPGPU-Sim uArch: Shader 8 finished CTA #0 (65986,0), 7 CTAs running
GPGPU-Sim uArch: core:  8, cta: 0 initialized @(65987,0)
GPGPU-Sim uArch: Shader 9 finished CTA #0 (66009,0), 7 CTAs running
GPGPU-Sim uArch: core:  9, cta: 0 initialized @(66010,0)
GPGPU-Sim uArch: Shader 6 finished CTA #0 (66034,0), 7 CTAs running
GPGPU-Sim uArch: core:  6, cta: 0 initialized @(66035,0)
GPGPU-Sim PTX: 37300000 instructions simulated : ctaid=(36,0,0) tid=(63,0,0)
GPGPU-Sim uArch: Shader 7 finished CTA #0 (66216,0), 7 CTAs running
GPGPU-Sim uArch: core:  7, cta: 0 initialized @(66217,0)
GPGPU-Sim PTX: 37400000 instructions simulated : ctaid=(34,0,0) tid=(63,0,0)
GPGPU-Sim PTX: 37500000 instructions simulated : ctaid=(117,0,0) tid=(63,0,0)
GPGPU-Sim uArch: cycles simulated: 66500  inst.: 37474848 (ipc=563.5) sim_rate=457010 (inst/sec) elapsed = 0:0:01:22 / Sun Feb 28 21:32:55 2016
GPGPU-Sim uArch: Shader 14 finished CTA #0 (66516,0), 7 CTAs running
GPGPU-Sim uArch: core: 14, cta: 0 initialized @(66517,0)
GPGPU-Sim uArch: Shader 13 finished CTA #1 (66603,0), 7 CTAs running
GPGPU-Sim uArch: core: 13, cta: 1 initialized @(66604,0)
GPGPU-Sim uArch: Shader 5 finished CTA #0 (66660,0), 7 CTAs running
GPGPU-Sim uArch: core:  5, cta: 0 initialized @(66661,0)
GPGPU-Sim uArch: Shader 13 finished CTA #0 (66665,0), 7 CTAs running
GPGPU-Sim uArch: core: 13, cta: 0 initialized @(66666,0)
GPGPU-Sim PTX: 37600000 instructions simulated : ctaid=(115,0,0) tid=(63,0,0)
GPGPU-Sim PTX: 37700000 instructions simulated : ctaid=(32,0,0) tid=(127,0,0)
GPGPU-Sim uArch: Shader 2 finished CTA #0 (66991,0), 7 CTAs running
GPGPU-Sim uArch: core:  2, cta: 0 initialized @(66992,0)
GPGPU-Sim PTX: 37800000 instructions simulated : ctaid=(88,0,0) tid=(31,0,0)
GPGPU-Sim uArch: Shader 2 finished CTA #1 (67112,0), 7 CTAs running
GPGPU-Sim uArch: core:  2, cta: 1 initialized @(67113,0)
GPGPU-Sim uArch: Shader 8 finished CTA #1 (67172,0), 7 CTAs running
GPGPU-Sim uArch: core:  8, cta: 1 initialized @(67173,0)
GPGPU-Sim PTX: 37900000 instructions simulated : ctaid=(50,0,0) tid=(31,0,0)
GPGPU-Sim PTX: 38000000 instructions simulated : ctaid=(99,0,0) tid=(31,0,0)
GPGPU-Sim uArch: cycles simulated: 67500  inst.: 38041984 (ipc=563.6) sim_rate=458337 (inst/sec) elapsed = 0:0:01:23 / Sun Feb 28 21:32:56 2016
GPGPU-Sim uArch: Shader 1 finished CTA #1 (67503,0), 7 CTAs running
GPGPU-Sim uArch: core:  1, cta: 1 initialized @(67504,0)
GPGPU-Sim PTX: 38100000 instructions simulated : ctaid=(49,0,0) tid=(63,0,0)
GPGPU-Sim PTX: 38200000 instructions simulated : ctaid=(123,0,0) tid=(95,0,0)
GPGPU-Sim uArch: Shader 5 finished CTA #1 (67715,0), 7 CTAs running
GPGPU-Sim uArch: core:  5, cta: 1 initialized @(67716,0)
GPGPU-Sim PTX: 38300000 instructions simulated : ctaid=(77,0,0) tid=(95,0,0)
GPGPU-Sim uArch: Shader 3 finished CTA #1 (67918,0), 7 CTAs running
GPGPU-Sim uArch: core:  3, cta: 1 initialized @(67919,0)
GPGPU-Sim PTX: 38400000 instructions simulated : ctaid=(129,0,0) tid=(95,0,0)
GPGPU-Sim uArch: Shader 9 finished CTA #2 (67991,0), 7 CTAs running
GPGPU-Sim uArch: core:  9, cta: 2 initialized @(67992,0)
GPGPU-Sim uArch: Shader 12 finished CTA #1 (68120,0), 7 CTAs running
GPGPU-Sim uArch: core: 12, cta: 1 initialized @(68121,0)
GPGPU-Sim PTX: 38500000 instructions simulated : ctaid=(87,0,0) tid=(127,0,0)
GPGPU-Sim uArch: Shader 4 finished CTA #1 (68284,0), 7 CTAs running
GPGPU-Sim uArch: core:  4, cta: 1 initialized @(68285,0)
GPGPU-Sim PTX: 38600000 instructions simulated : ctaid=(85,0,0) tid=(31,0,0)
GPGPU-Sim uArch: Shader 11 finished CTA #1 (68410,0), 7 CTAs running
GPGPU-Sim uArch: core: 11, cta: 1 initialized @(68411,0)
GPGPU-Sim PTX: 38700000 instructions simulated : ctaid=(83,0,0) tid=(127,0,0)
GPGPU-Sim uArch: cycles simulated: 68500  inst.: 38666368 (ipc=564.5) sim_rate=460313 (inst/sec) elapsed = 0:0:01:24 / Sun Feb 28 21:32:57 2016
GPGPU-Sim uArch: Shader 7 finished CTA #1 (68625,0), 7 CTAs running
GPGPU-Sim uArch: core:  7, cta: 1 initialized @(68626,0)
GPGPU-Sim PTX: 38800000 instructions simulated : ctaid=(51,0,0) tid=(63,0,0)
GPGPU-Sim uArch: Shader 12 finished CTA #2 (68654,0), 7 CTAs running
GPGPU-Sim uArch: core: 12, cta: 2 initialized @(68655,0)
GPGPU-Sim PTX: 38900000 instructions simulated : ctaid=(63,0,0) tid=(31,0,0)
GPGPU-Sim PTX: 39000000 instructions simulated : ctaid=(111,0,0) tid=(31,0,0)
GPGPU-Sim PTX: 39100000 instructions simulated : ctaid=(86,0,0) tid=(127,0,0)
GPGPU-Sim uArch: Shader 14 finished CTA #1 (69206,0), 7 CTAs running
GPGPU-Sim uArch: core: 14, cta: 1 initialized @(69207,0)
GPGPU-Sim uArch: Shader 13 finished CTA #2 (69298,0), 7 CTAs running
GPGPU-Sim uArch: core: 13, cta: 2 initialized @(69299,0)
GPGPU-Sim uArch: Shader 0 finished CTA #2 (69333,0), 7 CTAs running
GPGPU-Sim PTX: 39200000 instructions simulated : ctaid=(112,0,0) tid=(95,0,0)
GPGPU-Sim uArch: core:  0, cta: 2 initialized @(69334,0)
GPGPU-Sim uArch: Shader 10 finished CTA #1 (69398,0), 7 CTAs running
GPGPU-Sim uArch: core: 10, cta: 1 initialized @(69399,0)
GPGPU-Sim PTX: 39300000 instructions simulated : ctaid=(77,0,0) tid=(127,0,0)
GPGPU-Sim uArch: cycles simulated: 69500  inst.: 39259040 (ipc=564.9) sim_rate=461871 (inst/sec) elapsed = 0:0:01:25 / Sun Feb 28 21:32:58 2016
GPGPU-Sim PTX: 39400000 instructions simulated : ctaid=(88,0,0) tid=(95,0,0)
GPGPU-Sim PTX: 39500000 instructions simulated : ctaid=(132,0,0) tid=(127,0,0)
GPGPU-Sim uArch: Shader 3 finished CTA #2 (69972,0), 7 CTAs running
GPGPU-Sim uArch: core:  3, cta: 2 initialized @(69973,0)
GPGPU-Sim PTX: 39600000 instructions simulated : ctaid=(126,0,0) tid=(31,0,0)
GPGPU-Sim uArch: Shader 6 finished CTA #1 (70059,0), 7 CTAs running
GPGPU-Sim uArch: core:  6, cta: 1 initialized @(70060,0)
GPGPU-Sim PTX: 39700000 instructions simulated : ctaid=(108,0,0) tid=(63,0,0)
GPGPU-Sim PTX: 39800000 instructions simulated : ctaid=(64,0,0) tid=(127,0,0)
GPGPU-Sim uArch: Shader 8 finished CTA #2 (70337,0), 7 CTAs running
GPGPU-Sim uArch: core:  8, cta: 2 initialized @(70338,0)
GPGPU-Sim uArch: Shader 10 finished CTA #2 (70376,0), 7 CTAs running
GPGPU-Sim uArch: core: 10, cta: 2 initialized @(70377,0)
GPGPU-Sim PTX: 39900000 instructions simulated : ctaid=(77,0,0) tid=(95,0,0)
GPGPU-Sim uArch: cycles simulated: 70500  inst.: 39873088 (ipc=565.6) sim_rate=463640 (inst/sec) elapsed = 0:0:01:26 / Sun Feb 28 21:32:59 2016
GPGPU-Sim uArch: Shader 4 finished CTA #2 (70532,0), 7 CTAs running
GPGPU-Sim uArch: core:  4, cta: 2 initialized @(70533,0)
GPGPU-Sim uArch: Shader 7 finished CTA #2 (70607,0), 7 CTAs running
GPGPU-Sim uArch: core:  7, cta: 2 initialized @(70608,0)
GPGPU-Sim PTX: 40000000 instructions simulated : ctaid=(110,0,0) tid=(95,0,0)
GPGPU-Sim uArch: Shader 11 finished CTA #2 (70663,0), 7 CTAs running
GPGPU-Sim uArch: core: 11, cta: 2 initialized @(70664,0)
GPGPU-Sim PTX: 40100000 instructions simulated : ctaid=(104,0,0) tid=(63,0,0)
GPGPU-Sim PTX: 40200000 instructions simulated : ctaid=(31,0,0) tid=(63,0,0)
GPGPU-Sim uArch: Shader 5 finished CTA #2 (71049,0), 7 CTAs running
GPGPU-Sim uArch: core:  5, cta: 2 initialized @(71050,0)
GPGPU-Sim PTX: 40300000 instructions simulated : ctaid=(134,0,0) tid=(31,0,0)
GPGPU-Sim PTX: 40400000 instructions simulated : ctaid=(158,0,0) tid=(95,0,0)
GPGPU-Sim PTX: 40500000 instructions simulated : ctaid=(67,0,0) tid=(127,0,0)
GPGPU-Sim uArch: cycles simulated: 71500  inst.: 40499328 (ipc=566.4) sim_rate=465509 (inst/sec) elapsed = 0:0:01:27 / Sun Feb 28 21:33:00 2016
GPGPU-Sim PTX: 40600000 instructions simulated : ctaid=(139,0,0) tid=(31,0,0)
GPGPU-Sim PTX: 40700000 instructions simulated : ctaid=(110,0,0) tid=(31,0,0)
GPGPU-Sim PTX: 40800000 instructions simulated : ctaid=(111,0,0) tid=(127,0,0)
GPGPU-Sim uArch: Shader 6 finished CTA #2 (72013,0), 7 CTAs running
GPGPU-Sim uArch: core:  6, cta: 2 initialized @(72014,0)
GPGPU-Sim uArch: Shader 2 finished CTA #2 (72038,0), 7 CTAs running
GPGPU-Sim uArch: core:  2, cta: 2 initialized @(72039,0)
GPGPU-Sim PTX: 40900000 instructions simulated : ctaid=(85,0,0) tid=(127,0,0)
GPGPU-Sim uArch: Shader 3 finished CTA #3 (72148,0), 7 CTAs running
GPGPU-Sim uArch: core:  3, cta: 3 initialized @(72149,0)
GPGPU-Sim PTX: 41000000 instructions simulated : ctaid=(129,0,0) tid=(127,0,0)
GPGPU-Sim uArch: Shader 1 finished CTA #2 (72379,0), 7 CTAs running
GPGPU-Sim uArch: core:  1, cta: 2 initialized @(72380,0)
GPGPU-Sim PTX: 41100000 instructions simulated : ctaid=(79,0,0) tid=(127,0,0)
GPGPU-Sim uArch: cycles simulated: 72500  inst.: 41118176 (ipc=567.1) sim_rate=467252 (inst/sec) elapsed = 0:0:01:28 / Sun Feb 28 21:33:01 2016
GPGPU-Sim PTX: 41200000 instructions simulated : ctaid=(114,0,0) tid=(95,0,0)
GPGPU-Sim uArch: Shader 1 finished CTA #3 (72694,0), 7 CTAs running
GPGPU-Sim uArch: core:  1, cta: 3 initialized @(72695,0)
GPGPU-Sim PTX: 41300000 instructions simulated : ctaid=(154,0,0) tid=(127,0,0)
GPGPU-Sim PTX: 41400000 instructions simulated : ctaid=(113,0,0) tid=(31,0,0)
GPGPU-Sim PTX: 41500000 instructions simulated : ctaid=(123,0,0) tid=(95,0,0)
GPGPU-Sim PTX: 41600000 instructions simulated : ctaid=(165,0,0) tid=(31,0,0)
GPGPU-Sim PTX: 41700000 instructions simulated : ctaid=(89,0,0) tid=(127,0,0)
GPGPU-Sim uArch: Shader 14 finished CTA #2 (73401,0), 7 CTAs running
GPGPU-Sim uArch: core: 14, cta: 2 initialized @(73402,0)
GPGPU-Sim uArch: cycles simulated: 73500  inst.: 41721376 (ipc=567.6) sim_rate=468779 (inst/sec) elapsed = 0:0:01:29 / Sun Feb 28 21:33:02 2016
GPGPU-Sim PTX: 41800000 instructions simulated : ctaid=(118,0,0) tid=(127,0,0)
GPGPU-Sim PTX: 41900000 instructions simulated : ctaid=(98,0,0) tid=(95,0,0)
GPGPU-Sim uArch: Shader 9 finished CTA #3 (73805,0), 7 CTAs running
GPGPU-Sim uArch: core:  9, cta: 3 initialized @(73806,0)
GPGPU-Sim PTX: 42000000 instructions simulated : ctaid=(110,0,0) tid=(31,0,0)
GPGPU-Sim uArch: Shader 0 finished CTA #3 (73932,0), 7 CTAs running
GPGPU-Sim uArch: core:  0, cta: 3 initialized @(73933,0)
GPGPU-Sim PTX: 42100000 instructions simulated : ctaid=(123,0,0) tid=(63,0,0)
GPGPU-Sim PTX: 42200000 instructions simulated : ctaid=(69,0,0) tid=(63,0,0)
GPGPU-Sim PTX: 42300000 instructions simulated : ctaid=(134,0,0) tid=(63,0,0)
GPGPU-Sim uArch: Shader 12 finished CTA #3 (74451,0), 7 CTAs running
GPGPU-Sim uArch: core: 12, cta: 3 initialized @(74452,0)
GPGPU-Sim uArch: cycles simulated: 74500  inst.: 42309280 (ipc=567.9) sim_rate=470103 (inst/sec) elapsed = 0:0:01:30 / Sun Feb 28 21:33:03 2016
GPGPU-Sim PTX: 42400000 instructions simulated : ctaid=(48,0,0) tid=(127,0,0)
GPGPU-Sim PTX: 42500000 instructions simulated : ctaid=(46,0,0) tid=(127,0,0)
GPGPU-Sim PTX: 42600000 instructions simulated : ctaid=(99,0,0) tid=(63,0,0)
GPGPU-Sim PTX: 42700000 instructions simulated : ctaid=(167,0,0) tid=(31,0,0)
GPGPU-Sim PTX: 42800000 instructions simulated : ctaid=(83,0,0) tid=(63,0,0)
GPGPU-Sim PTX: 42900000 instructions simulated : ctaid=(60,0,0) tid=(63,0,0)
GPGPU-Sim uArch: cycles simulated: 75500  inst.: 42883552 (ipc=568.0) sim_rate=471247 (inst/sec) elapsed = 0:0:01:31 / Sun Feb 28 21:33:04 2016
GPGPU-Sim PTX: 43000000 instructions simulated : ctaid=(101,0,0) tid=(63,0,0)
GPGPU-Sim uArch: Shader 7 finished CTA #3 (75648,0), 7 CTAs running
GPGPU-Sim uArch: core:  7, cta: 3 initialized @(75649,0)
GPGPU-Sim PTX: 43100000 instructions simulated : ctaid=(77,0,0) tid=(127,0,0)
GPGPU-Sim PTX: 43200000 instructions simulated : ctaid=(124,0,0) tid=(127,0,0)
GPGPU-Sim PTX: 43300000 instructions simulated : ctaid=(114,0,0) tid=(63,0,0)
GPGPU-Sim PTX: 43400000 instructions simulated : ctaid=(98,0,0) tid=(31,0,0)
GPGPU-Sim PTX: 43500000 instructions simulated : ctaid=(118,0,0) tid=(95,0,0)
GPGPU-Sim uArch: cycles simulated: 76500  inst.: 43496544 (ipc=568.6) sim_rate=472788 (inst/sec) elapsed = 0:0:01:32 / Sun Feb 28 21:33:05 2016
GPGPU-Sim PTX: 43600000 instructions simulated : ctaid=(157,0,0) tid=(63,0,0)
GPGPU-Sim uArch: Shader 11 finished CTA #3 (76616,0), 7 CTAs running
GPGPU-Sim uArch: core: 11, cta: 3 initialized @(76617,0)
GPGPU-Sim PTX: 43700000 instructions simulated : ctaid=(52,0,0) tid=(127,0,0)
GPGPU-Sim PTX: 43800000 instructions simulated : ctaid=(63,0,0) tid=(127,0,0)
GPGPU-Sim PTX: 43900000 instructions simulated : ctaid=(136,0,0) tid=(31,0,0)
GPGPU-Sim uArch: Shader 2 finished CTA #3 (77104,0), 7 CTAs running
GPGPU-Sim uArch: core:  2, cta: 3 initialized @(77105,0)
GPGPU-Sim uArch: Shader 4 finished CTA #3 (77116,0), 7 CTAs running
GPGPU-Sim uArch: core:  4, cta: 3 initialized @(77117,0)
GPGPU-Sim PTX: 44000000 instructions simulated : ctaid=(161,0,0) tid=(63,0,0)
GPGPU-Sim uArch: Shader 13 finished CTA #3 (77385,0), 7 CTAs running
GPGPU-Sim uArch: core: 13, cta: 3 initialized @(77386,0)
GPGPU-Sim PTX: 44100000 instructions simulated : ctaid=(101,0,0) tid=(63,0,0)
GPGPU-Sim uArch: cycles simulated: 77500  inst.: 44083520 (ipc=568.8) sim_rate=474016 (inst/sec) elapsed = 0:0:01:33 / Sun Feb 28 21:33:06 2016
GPGPU-Sim PTX: 44200000 instructions simulated : ctaid=(87,0,0) tid=(31,0,0)
GPGPU-Sim PTX: 44300000 instructions simulated : ctaid=(132,0,0) tid=(31,0,0)
GPGPU-Sim PTX: 44400000 instructions simulated : ctaid=(81,0,0) tid=(95,0,0)
GPGPU-Sim uArch: Shader 8 finished CTA #3 (78100,0), 7 CTAs running
GPGPU-Sim uArch: core:  8, cta: 3 initialized @(78101,0)
GPGPU-Sim PTX: 44500000 instructions simulated : ctaid=(119,0,0) tid=(31,0,0)
GPGPU-Sim uArch: Shader 10 finished CTA #3 (78221,0), 7 CTAs running
GPGPU-Sim uArch: core: 10, cta: 3 initialized @(78222,0)
GPGPU-Sim PTX: 44600000 instructions simulated : ctaid=(147,0,0) tid=(95,0,0)
GPGPU-Sim PTX: 44700000 instructions simulated : ctaid=(151,0,0) tid=(95,0,0)
GPGPU-Sim uArch: cycles simulated: 78500  inst.: 44682560 (ipc=569.2) sim_rate=475346 (inst/sec) elapsed = 0:0:01:34 / Sun Feb 28 21:33:07 2016
GPGPU-Sim PTX: 44800000 instructions simulated : ctaid=(97,0,0) tid=(63,0,0)
GPGPU-Sim uArch: Shader 5 finished CTA #3 (78702,0), 7 CTAs running
GPGPU-Sim uArch: core:  5, cta: 3 initialized @(78703,0)
GPGPU-Sim PTX: 44900000 instructions simulated : ctaid=(146,0,0) tid=(63,0,0)
[...]
max_icnt2sh_latency = 348752 
mrq_lat_table:121939 	3816 	5942 	14196 	43799 	70549 	94350 	66516 	15715 	682 	5 	0 	0 	0 	0 	0 	0 	0 	0 	0 	0 	0 	0 	0 	0 	0 	0 	0 	0 	0 	0 	0 	
dq_lat_table:0 	0 	0 	0 	0 	0 	0 	0 	0 	0 	0 	0 	0 	0 	0 	0 	0 	0 	0 	0 	0 	0 	0 	0 	0 	0 	0 	0 	0 	0 	0 	0 	
mf_lat_table:0 	0 	0 	0 	0 	0 	0 	112 	43363 	252363 	16676 	1 	0 	0 	0 	0 	0 	0 	0 	0 	0 	0 	0 	0 	0 	0 	0 	0 	0 	0 	0 	0 	
icnt2mem_lat_table:0 	0 	0 	20959 	9743 	20895 	74095 	85448 	96946 	4549 	0 	0 	0 	0 	0 	0 	0 	0 	0 	0 	0 	0 	0 	0 	
icnt2sh_lat_table:0 	0 	0 	131146 	54130 	2230 	9 	0 	0 	0 	0 	118 	1476 	3135 	6147 	12218 	24568 	49303 	28035 	0 	0 	0 	0 	0 	
mf_lat_pw_table:0 	0 	0 	0 	0 	0 	0 	0 	58 	637 	0 	0 	0 	0 	0 	0 	0 	0 	0 	0 	0 	0 	0 	0 	0 	0 	0 	0 	0 	0 	0 	0 	
maximum concurrent accesses to same row:
dram[0]:        31        32        14        26        28        26        40        34        20        18        28        30        32        30        16        28 
dram[1]:        27        29        28        14        30        20        32        32        30        14        28        26        31        30        32        18 
dram[2]:        32        31        26        24        20        24        36        34        14        24        28        30        32        30        24        18 
dram[3]:        30        28        16        13        20        26        36        32        18        12        30        26        32        30        16        16 
dram[4]:        30        29        20        16        22        24        34        34        20        20        30        32        30        30        20        20 
dram[5]:        26        28        22        22        20        24        32        32        14        22        28        28        30        30        16        20 
maximum service time to same row:
dram[0]:      3399      3195      4399      3834      3818      2418      2478      2481      6164      5148      2582      2582      3219      3216      6324      4738 
dram[1]:      2355      3196      3725      3909      3824      4781      2444      2533      5585      4113      2434      2828      3078      3031      5945      4764 
dram[2]:      2205      3443      4146      3843      2414      2425      2428      2475      4807      5273      2496      2530      2971      2960      4674      4769 
dram[3]:      3402      3314      3753      3770      2416      2433      3397      2730      4831      4716      3400      4838      3407      2731      4690      4612 
dram[4]:      3212      3313      4260      4034      2416      3619      2421      2467      4332      5151      2920      2557      3210      3261      4672      4446 
dram[5]:      3210      4226      3529      4309      2420      2423      2442      4235      4637      4379      2430      2491      3017      4246      4494      4415 
average row accesses per activate:
dram[0]:  1.576990  1.598025  1.563410  1.565036  1.578544  1.561682  1.604488  1.594981  1.546991  1.562842  1.588889  1.583939  1.583939  1.573590  1.585036  1.570889 
dram[1]:  1.547595  1.546230  1.528973  1.531568  1.546758  1.558459  1.571429  1.577387  1.531972  1.522289  1.552765  1.560177  1.543860  1.554348  1.545946  1.559114 
dram[2]:  1.577739  1.586835  1.553719  1.550515  1.560606  1.575000  1.600560  1.615819  1.552239  1.552239  1.577931  1.595537  1.594425  1.581203  1.566587  1.577931 
dram[3]:  1.553957  1.556319  1.537832  1.514602  1.554184  1.538149  1.579565  1.573590  1.537118  1.530947  1.563375  1.549086  1.556463  1.555933  1.555405  1.539704 
dram[4]:  1.572667  1.573065  1.551582  1.547325  1.558459  1.568465  1.584488  1.612971  1.567123  1.543860  1.582843  1.582296  1.575758  1.577931  1.588889  1.585586 
dram[5]:  1.544804  1.553651  1.522781  1.536785  1.548343  1.542857  1.569811  1.578475  1.532485  1.528901  1.556992  1.548038  1.556463  1.560709  1.537634  1.560709 
average row locality = 437509/280075 = 1.562114
number of total memory accesses made:
dram[0]:         0         0         0         0         0         0         0         0         0         0         0         0         0         0         0         0 
dram[1]:         0         0         0         0         0         0         0         0         0         0         0         0         0         0         0         0 
dram[2]:         0         0         0         0         0         0         0         0         0         0         0         0         0         0         0         0 
dram[3]:         0         0         0         0         0         0         0         0         0         0         0         0         0         0         0         0 
dram[4]:         0         0         0         0         0         0         0         0         0         0         0         0         0         0         0         0 
dram[5]:         0         0         0         0         0         0         0         0         0         0         0         0         0         0         0         0 
total accesses: 0
min_bank_accesses = 0!
min_chip_accesses = 0!
number of total read accesses:
dram[0]:      3251      3246      3232      3232      3242      3242      3264      3264      3264      3264      3264      3264      3264      3264      3264      3264 
dram[1]:      3250      3246      3232      3232      3242      3242      3264      3264      3264      3264      3264      3264      3264      3264      3264      3264 
dram[2]:      3250      3246      3232      3232      3242      3244      3264      3264      3264      3264      3264      3264      3264      3264      3264      3264 
dram[3]:      3250      3246      3232      3232      3242      3244      3264      3264      3264      3264      3264      3264      3264      3264      3264      3264 
dram[4]:      3248      3246      3232      3232      3242      3244      3264      3264      3264      3264      3264      3264      3264      3264      3264      3264 
dram[5]:      3248      3246      3232      3232      3242      3244      3264      3264      3264      3264      3264      3264      3264      3264      3264      3264 
total reads: 312509
bank skew: 3264/3232 = 1.01
chip skew: 52086/52084 = 1.00
number of total write accesses:
dram[0]:      1286      1286      1280      1280      1290      1290      1312      1312      1312      1312      1312      1312      1312      1312      1312      1312 
dram[1]:      1286      1286      1280      1280      1290      1290      1312      1312      1312      1312      1312      1312      1312      1312      1312      1312 
dram[2]:      1286      1286      1280      1280      1290      1292      1312      1312      1312      1312      1312      1312      1312      1312      1312      1312 
dram[3]:      1286      1286      1280      1280      1290      1292      1312      1312      1312      1312      1312      1312      1312      1312      1312      1312 
dram[4]:      1286      1286      1280      1280      1290      1292      1312      1312      1312      1312      1312      1312      1312      1312      1312      1312 
dram[5]:      1286      1286      1280      1280      1290      1292      1312      1312      1312      1312      1312      1312      1312      1312      1312      1312 
total reads: 125000
bank skew: 1312/1280 = 1.02
chip skew: 20834/20832 = 1.00
average mf latency per bank:
dram[0]:        509       510       515       518       514       519       523       525       505       510       514       512       518       523       525       530
dram[1]:        471       476       478       482       483       492       488       493       473       478       477       482       481       491       493       504
dram[2]:        488       492       503       494       497       501       499       504       497       494       494       496       501       499       518       516
dram[3]:        460       457       467       460       473       466       472       467       459       456       465       461       465       462       474       481
dram[4]:        558       547       561       557       569       564       571       574       559       559       559       555       564       564       582       583
dram[5]:        503       504       513       515       516       516       517       520       510       506       506       508       518       520       528       530
maximum mf latency per bank:
dram[0]:       1600      1468      1560      1615      1724      1548      1480      1585      1959      1607      1666      1631      1659      1599      1727      1445
dram[1]:       1256      1425      2158      1327      1711      1398      1565      1474      1347      1261      1298      1355      1320      1472      1325      1480
dram[2]:       1549      1525      1669      1436      1426      1428      1848      1368      1497      1813      1805      1803      1961      1424      1765      1462
dram[3]:       1319      1508      1551      1207      1562      1817      1630      1324      1468      1310      1557      1370      1624      1350      1557      1393
dram[4]:       1706      1430      1454      1421      1784      1555      1776      1641      1555      1400      1607      1622      1666      1849      1571      1646
dram[5]:       1331      1619      1402      1454      1419      1324      1603      1487      1394      1373      1394      1456      1363      1608      1532      1496

Number of Memory Banks Accessed per Memory Operation per Warp (from 0):
0	0	0	0	0	0	0	0	0	0	0	0	0	0	0	0	0	0	0	0	0	0	0	0	0	0	0	0	0	0	0	0	0	0	0	0	0	0	0	0	0	0	0	0	0	0	0	0	0	0	0	0	0	0	0	0	0	0	0	0	0	0	0	0	0	0	0	0	0	0	0	0	0	0	0	0	0	0	0	0	0	0	0	0	0	0	0	0	0	0	0	0	0	0	0	0	
Average # of Memory Banks Accessed per Memory Operation per Warp=-nan

position of mrq chosen
0	0	0	0	0	0	0	0	0	0	0	0	0	0	0	0	

average position of mrq chosen = -nan
Memory Partition 0: 
Cache L2_bank_000:
MSHR contents

Cache L2_bank_001:
MSHR contents

In Dram Latency Queue (total = 0): 
DRAM[0]: 16 bks, busW=4 BL=8 CL=12, tRRD=2 tCCD=6, tRCD=12 tRAS=28 tRP=12 tRC=40
n_cmd=460353 n_nop=222079 n_act=46228 n_pre=46212 n_req=72917 n_rd=104170 n_write=41664 bw_util=0.6336
n_activity=445107 dram_eff=0.6553
bk0: 6502a 222427i bk1: 6492a 217359i bk2: 6464a 208177i bk3: 6464a 202517i bk4: 6484a 199914i bk5: 6484a 191504i bk6: 6528a 183250i bk7: 6528a 174469i bk8: 6528a 216669i bk9: 6528a 209563i bk10: 6528a 207740i bk11: 6528a 202198i bk12: 6528a 194453i bk13: 6528a 189061i bk14: 6528a 186066i bk15: 6528a 173121i 
dram_util_bins: 0 0 0 0 0 0 0 0 0 0
dram_eff_bins: 0 0 0 0 0 0 0 0 0 0
mrqq: max=16 avg=14.5081
Memory Partition 1: 
Cache L2_bank_002:
MSHR contents

Cache L2_bank_003:
MSHR contents

In Dram Latency Queue (total = 0): 
DRAM[1]: 16 bks, busW=4 BL=8 CL=12, tRRD=2 tCCD=6, tRCD=12 tRAS=28 tRP=12 tRC=40
n_cmd=460353 n_nop=220365 n_act=47086 n_pre=47070 n_req=72916 n_rd=104168 n_write=41664 bw_util=0.6336
n_activity=447803 dram_eff=0.6513
bk0: 6500a 223025i bk1: 6492a 214733i bk2: 6464a 211349i bk3: 6464a 204675i bk4: 6484a 196516i bk5: 6484a 190686i bk6: 6528a 184744i bk7: 6528a 176278i bk8: 6528a 215902i bk9: 6528a 211088i bk10: 6528a 208174i bk11: 6528a 204595i bk12: 6528a 196721i bk13: 6528a 188180i bk14: 6528a 180629i bk15: 6528a 168925i 
dram_util_bins: 0 0 0 0 0 0 0 0 0 0
dram_eff_bins: 0 0 0 0 0 0 0 0 0 0
mrqq: max=16 avg=14.2076
Memory Partition 2: 
Cache L2_bank_004:
MSHR contents

Cache L2_bank_005:
MSHR contents

In Dram Latency Queue (total = 0): 
DRAM[2]: 16 bks, busW=4 BL=8 CL=12, tRRD=2 tCCD=6, tRCD=12 tRAS=28 tRP=12 tRC=40
n_cmd=460353 n_nop=221991 n_act=46269 n_pre=46253 n_req=72920 n_rd=104172 n_write=41668 bw_util=0.6336
n_activity=444773 dram_eff=0.6558
bk0: 6500a 225883i bk1: 6492a 221868i bk2: 6464a 210524i bk3: 6464a 208814i bk4: 6484a 203836i bk5: 6488a 193968i bk6: 6528a 188638i bk7: 6528a 175560i bk8: 6528a 216339i bk9: 6528a 213477i bk10: 6528a 209478i bk11: 6528a 204769i bk12: 6528a 199020i bk13: 6528a 190615i bk14: 6528a 179589i bk15: 6528a 174482i 
dram_util_bins: 0 0 0 0 0 0 0 0 0 0
dram_eff_bins: 0 0 0 0 0 0 0 0 0 0
mrqq: max=16 avg=14.3011
Memory Partition 3: 
Cache L2_bank_006:
MSHR contents

Cache L2_bank_007:
MSHR contents
MSHR: tag=0x80f21180, atomic=0 1 entries : 0x7f49d9171620 :  mf: uid=7758553, sid00:w03, part=3, addr=0x80f21180, load , size=128, unknown  status = IN_PARTITION_DRAM (348750), 

In Dram Latency Queue (total = 0): 
DRAM[3]: 16 bks, busW=4 BL=8 CL=12, tRRD=2 tCCD=6, tRCD=12 tRAS=28 tRP=12 tRC=40
n_cmd=460353 n_nop=220417 n_act=47056 n_pre=47040 n_req=72920 n_rd=104172 n_write=41668 bw_util=0.6336
n_activity=447736 dram_eff=0.6515
bk0: 6500a 220585i bk1: 6492a 217712i bk2: 6464a 210461i bk3: 6464a 205114i bk4: 6484a 198618i bk5: 6488a 189264i bk6: 6528a 185971i bk7: 6528a 175952i bk8: 6528a 219287i bk9: 6528a 209337i bk10: 6528a 206685i bk11: 6528a 203882i bk12: 6528a 195722i bk13: 6528a 195241i bk14: 6528a 182239i bk15: 6528a 171115i 
dram_util_bins: 0 0 0 0 0 0 0 0 0 0
dram_eff_bins: 0 0 0 0 0 0 0 0 0 0
mrqq: max=16 avg=14.2943
Memory Partition 4: 
Cache L2_bank_008:
MSHR contents

Cache L2_bank_009:
MSHR contents

In Dram Latency Queue (total = 0): 
DRAM[4]: 16 bks, busW=4 BL=8 CL=12, tRRD=2 tCCD=6, tRCD=12 tRAS=28 tRP=12 tRC=40
n_cmd=460353 n_nop=221833 n_act=46350 n_pre=46334 n_req=72918 n_rd=104168 n_write=41668 bw_util=0.6336
n_activity=444134 dram_eff=0.6567
bk0: 6496a 221376i bk1: 6492a 217185i bk2: 6464a 210621i bk3: 6464a 205856i bk4: 6484a 197889i bk5: 6488a 192357i bk6: 6528a 185703i bk7: 6528a 175172i bk8: 6528a 218334i bk9: 6528a 207956i bk10: 6528a 209581i bk11: 6528a 202558i bk12: 6528a 195392i bk13: 6528a 188756i bk14: 6528a 180026i bk15: 6528a 171136i 
dram_util_bins: 0 0 0 0 0 0 0 0 0 0
dram_eff_bins: 0 0 0 0 0 0 0 0 0 0
mrqq: max=16 avg=14.7429
Memory Partition 5: 
Cache L2_bank_010:
MSHR contents

Cache L2_bank_011:
MSHR contents

In Dram Latency Queue (total = 0): 
DRAM[5]: 16 bks, busW=4 BL=8 CL=12, tRRD=2 tCCD=6, tRCD=12 tRAS=28 tRP=12 tRC=40
n_cmd=460353 n_nop=220361 n_act=47086 n_pre=47070 n_req=72918 n_rd=104168 n_write=41668 bw_util=0.6336
n_activity=447029 dram_eff=0.6525
bk0: 6496a 221860i bk1: 6492a 216345i bk2: 6464a 210984i bk3: 6464a 202630i bk4: 6484a 197966i bk5: 6488a 190712i bk6: 6528a 183431i bk7: 6528a 174891i bk8: 6528a 217760i bk9: 6528a 210509i bk10: 6528a 207871i bk11: 6528a 203623i bk12: 6528a 193671i bk13: 6528a 188064i bk14: 6528a 177804i bk15: 6528a 168947i 
dram_util_bins: 0 0 0 0 0 0 0 0 0 0
dram_eff_bins: 0 0 0 0 0 0 0 0 0 0
mrqq: max=16 avg=14.4012

========= L2 cache stats =========
L2_cache_bank[0]: Access = 26087, Miss = 26045, Miss_rate = 0.998, Pending_hits = 9, Reservation_fails = 29349
L2_cache_bank[1]: Access = 26040, Miss = 26040, Miss_rate = 1.000, Pending_hits = 0, Reservation_fails = 34468
L2_cache_bank[2]: Access = 26072, Miss = 26044, Miss_rate = 0.999, Pending_hits = 6, Reservation_fails = 22170
L2_cache_bank[3]: Access = 26040, Miss = 26040, Miss_rate = 1.000, Pending_hits = 0, Reservation_fails = 28745
L2_cache_bank[4]: Access = 26072, Miss = 26044, Miss_rate = 0.999, Pending_hits = 6, Reservation_fails = 18842
L2_cache_bank[5]: Access = 26042, Miss = 26042, Miss_rate = 1.000, Pending_hits = 0, Reservation_fails = 18330
L2_cache_bank[6]: Access = 26072, Miss = 26044, Miss_rate = 0.999, Pending_hits = 6, Reservation_fails = 20657
L2_cache_bank[7]: Access = 26042, Miss = 26042, Miss_rate = 1.000, Pending_hits = 0, Reservation_fails = 19859
L2_cache_bank[8]: Access = 26042, Miss = 26042, Miss_rate = 1.000, Pending_hits = 0, Reservation_fails = 17975
L2_cache_bank[9]: Access = 26042, Miss = 26042, Miss_rate = 1.000, Pending_hits = 0, Reservation_fails = 21273
L2_cache_bank[10]: Access = 26042, Miss = 26042, Miss_rate = 1.000, Pending_hits = 0, Reservation_fails = 26526
L2_cache_bank[11]: Access = 26042, Miss = 26042, Miss_rate = 1.000, Pending_hits = 0, Reservation_fails = 30685
L2_total_cache_accesses = 312635
L2_total_cache_misses = 312509
L2_total_cache_miss_rate = 0.9996
L2_total_cache_pending_hits = 27
L2_total_cache_reservation_fails = 288879
L2_total_cache_breakdown:
	L2_cache_stats_breakdown[GLOBAL_ACC_R][MISS] = 187500
	L2_cache_stats_breakdown[GLOBAL_ACC_R][RESERVATION_FAIL] = 172281
	L2_cache_stats_breakdown[CONST_ACC_R][HIT] = 11
	L2_cache_stats_breakdown[CONST_ACC_R][HIT_RESERVED] = 3
	L2_cache_stats_breakdown[CONST_ACC_R][MISS] = 1
	L2_cache_stats_breakdown[CONST_ACC_R][RESERVATION_FAIL] = 109
	L2_cache_stats_breakdown[GLOBAL_ACC_W][MISS] = 125000
	L2_cache_stats_breakdown[GLOBAL_ACC_W][RESERVATION_FAIL] = 115726
	L2_cache_stats_breakdown[INST_ACC_R][HIT] = 88
	L2_cache_stats_breakdown[INST_ACC_R][HIT_RESERVED] = 24
	L2_cache_stats_breakdown[INST_ACC_R][MISS] = 8
	L2_cache_stats_breakdown[INST_ACC_R][RESERVATION_FAIL] = 763
L2_cache_data_port_util = 0.000
L2_cache_fill_port_util = 0.299

icnt_total_pkts_mem_to_simt=1063145
icnt_total_pkts_simt_to_mem=812635
LD_mem_lat_dist  0 0 0 0 0 0 0 0 0 0 0 0 0 0 0 0 0 0 0 0 0 0 0 0 0 0 0
ST_mem_lat_dist  0 0 0 0 0 0 0 0 0 0 0 0 0 0 0 0 0 0 0 0 0 0 0 0 0 0 0
----------------------------Interconnect-DETAILS--------------------------------
Class 0:
Packet latency average = 52.8514
	minimum = 6
	maximum = 768
Network latency average = 35.2586
	minimum = 6
	maximum = 747
Slowest packet = 4185
Flit latency average = 26.168
	minimum = 6
	maximum = 747
Slowest flit = 12483
Fragmentation average = 0.556831
	minimum = 0
	maximum = 508
Injected packet rate average = 0.0664027
	minimum = 0.0578891 (at node 2)
	maximum = 0.0748008 (at node 15)
Accepted packet rate average = 0.0664027
	minimum = 0.0578891 (at node 2)
	maximum = 0.0748008 (at node 15)
Injected flit rate average = 0.199205
	minimum = 0.15047 (at node 2)
	maximum = 0.254452 (at node 15)
Accepted flit rate average= 0.199205
	minimum = 0.194132 (at node 16)
	maximum = 0.209727 (at node 6)
Injected packet length average = 2.99995
Accepted packet length average = 2.99995
Total in-flight flits = 0 (0 measured)
====== Overall Traffic Statistics ======
====== Traffic class 0 ======
Packet latency average = 52.8514 (1 samples)
	minimum = 6 (1 samples)
	maximum = 768 (1 samples)
Network latency average = 35.2586 (1 samples)
	minimum = 6 (1 samples)
	maximum = 747 (1 samples)
Flit latency average = 26.168 (1 samples)
	minimum = 6 (1 samples)
	maximum = 747 (1 samples)
Fragmentation average = 0.556831 (1 samples)
	minimum = 0 (1 samples)
	maximum = 508 (1 samples)
Injected packet rate average = 0.0664027 (1 samples)
	minimum = 0.0578891 (1 samples)
	maximum = 0.0748008 (1 samples)
Accepted packet rate average = 0.0664027 (1 samples)
	minimum = 0.0578891 (1 samples)
	maximum = 0.0748008 (1 samples)
Injected flit rate average = 0.199205 (1 samples)
	minimum = 0.15047 (1 samples)
	maximum = 0.254452 (1 samples)
Accepted flit rate average = 0.199205 (1 samples)
	minimum = 0.194132 (1 samples)
	maximum = 0.209727 (1 samples)
Injected packet size average = 2.99995 (1 samples)
Accepted packet size average = 2.99995 (1 samples)
Hops average = 1 (1 samples)
----------------------------END-of-Interconnect-DETAILS-------------------------


gpgpu_simulation_time = 0 days, 0 hrs, 6 min, 32 sec (392 sec)
gpgpu_simulation_rate = 499443 (inst/sec)
gpgpu_simulation_rate = 889 (cycle/sec)
GPGPU-Sim: synchronize waiting for inactive GPU simulation
GPGPU-Sim API: Stream Manager State
GPGPU-Sim: detected inactive GPU simulation thread
Options count             : 4000000     
BlackScholesGPU() time    : 388471.312500 msec
Effective memory bandwidth: 0.000103 GB/s
Gigaoptions per second    : 0.000010     
Reading back GPU results...
Checking the results...
...running CPU calculations.
Comparing the results...
L1 norm: 1.729535E-07
Max absolute error: 1.192093E-05
TEST PASSED
Shutting down...
...releasing GPU memory.
...releasing CPU memory.
Shutdown done.
GPGPU-Sim: exit_simulation called
GPGPU-Sim: simulation thread signaled exit

Press ENTER to exit...
