

        *** GPGPU-Sim Simulator Version 3.2.2  [build 0] ***


GPGPU-Sim PTX: simulation mode 0 (can change with PTX_SIM_MODE_FUNC environment variable:
               1=functional simulation only, 0=detailed performance simulator)
GPGPU-Sim: Configuration options:

-network_mode                           1 # Interconnection network mode
-inter_config_file   config_fermi_islip.icnt # Interconnection network config file
-gpgpu_ptx_use_cuobjdump                    1 # Use cuobjdump to extract ptx and sass from binaries
-gpgpu_experimental_lib_support                    0 # Try to extract code from cuda libraries [Broken because of unknown cudaGetExportTable]
-gpgpu_ptx_convert_to_ptxplus                    0 # Convert SASS (native ISA) to ptxplus and run ptxplus
-gpgpu_ptx_force_max_capability                   20 # Force maximum compute capability
-gpgpu_ptx_inst_debug_to_file                    0 # Dump executed instructions' debug information to file
-gpgpu_ptx_inst_debug_file       inst_debug.txt # Executed instructions' debug output file
-gpgpu_ptx_inst_debug_thread_uid                    1 # Thread UID for executed instructions' debug output
-gpgpu_simd_model                       1 # 1 = post-dominator
-gpgpu_shader_core_pipeline              1536:32 # shader core pipeline config, i.e., {<nthread>:<warpsize>}
-gpgpu_tex_cache:l1  4:128:24,L:R:m:N:L,F:128:4,128:2 # per-shader L1 texture cache  (READ-ONLY) config  {<nsets>:<bsize>:<assoc>,<rep>:<wr>:<alloc>:<wr_alloc>,<mshr>:<N>:<merge>,<mq>:<rf>}
-gpgpu_const_cache:l1 64:64:2,L:R:f:N:L,A:2:32,4 # per-shader L1 constant memory cache  (READ-ONLY) config  {<nsets>:<bsize>:<assoc>,<rep>:<wr>:<alloc>:<wr_alloc>,<mshr>:<N>:<merge>,<mq>} 
-gpgpu_cache:il1     4:128:4,L:R:f:N:L,A:2:32,4 # shader L1 instruction cache config  {<nsets>:<bsize>:<assoc>,<rep>:<wr>:<alloc>:<wr_alloc>,<mshr>:<N>:<merge>,<mq>} 
-gpgpu_cache:dl1     32:128:4,L:L:m:N:H,A:32:8,8 # per-shader L1 data cache config  {<nsets>:<bsize>:<assoc>,<rep>:<wr>:<alloc>:<wr_alloc>,<mshr>:<N>:<merge>,<mq> | none}
-gpgpu_cache:dl1PrefL1                 none # per-shader L1 data cache config  {<nsets>:<bsize>:<assoc>,<rep>:<wr>:<alloc>:<wr_alloc>,<mshr>:<N>:<merge>,<mq> | none}
-gpgpu_cache:dl1PreShared                 none # per-shader L1 data cache config  {<nsets>:<bsize>:<assoc>,<rep>:<wr>:<alloc>:<wr_alloc>,<mshr>:<N>:<merge>,<mq> | none}
-gmem_skip_L1D                          0 # global memory access skip L1D cache (implements -Xptxas -dlcm=cg, default=no skip)
-gpgpu_perfect_mem                      0 # enable perfect memory mode (no cache miss)
-n_regfile_gating_group                    4 # group of lanes that should be read/written together)
-gpgpu_clock_gated_reg_file                    0 # enable clock gated reg file for power calculations
-gpgpu_clock_gated_lanes                    0 # enable clock gated lanes for power calculations
-gpgpu_shader_registers                32768 # Number of registers per shader core. Limits number of concurrent CTAs. (default 8192)
-gpgpu_shader_cta                       8 # Maximum number of concurrent CTAs in shader (default 8)
-gpgpu_num_cta_barriers                   16 # Maximum number of named barriers per CTA (default 16)
-gpgpu_n_clusters                      15 # number of processing clusters
-gpgpu_n_cores_per_cluster                    1 # number of simd cores per cluster
-gpgpu_n_cluster_ejection_buffer_size                    8 # number of packets in ejection buffer
-gpgpu_n_ldst_response_buffer_size                    2 # number of response packets in ld/st unit ejection buffer
-gpgpu_shmem_size                   16384 # Size of shared memory per shader core (default 16kB)
-gpgpu_shmem_size                   49152 # Size of shared memory per shader core (default 16kB)
-gpgpu_shmem_size_PrefL1                16384 # Size of shared memory per shader core (default 16kB)
-gpgpu_shmem_size_PrefShared                16384 # Size of shared memory per shader core (default 16kB)
-gpgpu_shmem_num_banks                   32 # Number of banks in the shared memory in each shader core (default 16)
-gpgpu_shmem_limited_broadcast                    0 # Limit shared memory to do one broadcast per cycle (default on)
-gpgpu_shmem_warp_parts                    1 # Number of portions a warp is divided into for shared memory bank conflict check 
-gpgpu_warpdistro_shader                   -1 # Specify which shader core to collect the warp size distribution from
-gpgpu_warp_issue_shader                    0 # Specify which shader core to collect the warp issue distribution from
-gpgpu_local_mem_map                    1 # Mapping from local memory space address to simulated GPU physical address space (default = enabled)
-gpgpu_num_reg_banks                   16 # Number of register banks (default = 8)
-gpgpu_reg_bank_use_warp_id                    0 # Use warp ID in mapping registers to banks (default = off)
-gpgpu_operand_collector_num_units_sp                    6 # number of collector units (default = 4)
-gpgpu_operand_collector_num_units_sfu                    8 # number of collector units (default = 4)
-gpgpu_operand_collector_num_units_mem                    2 # number of collector units (default = 2)
-gpgpu_operand_collector_num_units_gen                    0 # number of collector units (default = 0)
-gpgpu_operand_collector_num_in_ports_sp                    2 # number of collector unit in ports (default = 1)
-gpgpu_operand_collector_num_in_ports_sfu                    1 # number of collector unit in ports (default = 1)
-gpgpu_operand_collector_num_in_ports_mem                    1 # number of collector unit in ports (default = 1)
-gpgpu_operand_collector_num_in_ports_gen                    0 # number of collector unit in ports (default = 0)
-gpgpu_operand_collector_num_out_ports_sp                    2 # number of collector unit in ports (default = 1)
-gpgpu_operand_collector_num_out_ports_sfu                    1 # number of collector unit in ports (default = 1)
-gpgpu_operand_collector_num_out_ports_mem                    1 # number of collector unit in ports (default = 1)
-gpgpu_operand_collector_num_out_ports_gen                    0 # number of collector unit in ports (default = 0)
-gpgpu_coalesce_arch                   13 # Coalescing arch (default = 13, anything else is off for now)
-gpgpu_num_sched_per_core                    2 # Number of warp schedulers per core
-gpgpu_max_insn_issue_per_warp                    1 # Max number of instructions that can be issued per warp in one cycle by scheduler
-gpgpu_simt_core_sim_order                    1 # Select the simulation order of cores in a cluster (0=Fix, 1=Round-Robin)
-gpgpu_pipeline_widths        2,1,1,2,1,1,2 # Pipeline widths ID_OC_SP,ID_OC_SFU,ID_OC_MEM,OC_EX_SP,OC_EX_SFU,OC_EX_MEM,EX_WB
-gpgpu_num_sp_units                     2 # Number of SP units (default=1)
-gpgpu_num_sfu_units                    1 # Number of SF units (default=1)
-gpgpu_num_mem_units                    1 # Number if ldst units (default=1) WARNING: not hooked up to anything
-gpgpu_scheduler                      gto # Scheduler configuration: < lrr | gto | two_level_active > If two_level_active:<num_active_warps>:<inner_prioritization>:<outer_prioritization>For complete list of prioritization values see shader.h enum scheduler_prioritization_typeDefault: gto
-gpgpu_dram_scheduler                    1 # 0 = fifo, 1 = FR-FCFS (defaul)
-gpgpu_dram_partition_queues              8:8:8:8 # i2$:$2d:d2$:$2i
-l2_ideal                               0 # Use a ideal L2 cache that always hit
-gpgpu_cache:dl2     64:128:8,L:B:m:W:L,A:32:4,4:0,32 # unified banked L2 data cache config  {<nsets>:<bsize>:<assoc>,<rep>:<wr>:<alloc>:<wr_alloc>,<mshr>:<N>:<merge>,<mq>}
-gpgpu_cache:dl2_texture_only                    0 # L2 cache used for texture only
-gpgpu_n_mem                            6 # number of memory modules (e.g. memory controllers) in gpu
-gpgpu_n_sub_partition_per_mchannel                    2 # number of memory subpartition in each memory module
-gpgpu_n_mem_per_ctrlr                    2 # number of memory chips per memory controller
-gpgpu_memlatency_stat                   14 # track and display latency statistics 0x2 enables MC, 0x4 enables queue logs
-gpgpu_frfcfs_dram_sched_queue_size                   16 # 0 = unlimited (default); # entries per chip
-gpgpu_dram_return_queue_size                  116 # 0 = unlimited (default); # entries per chip
-gpgpu_dram_buswidth                    4 # default = 4 bytes (8 bytes per cycle at DDR)
-gpgpu_dram_burst_length                    8 # Burst length of each DRAM request (default = 4 data bus cycle)
-dram_data_command_freq_ratio                    8 # Frequency ratio between DRAM data bus and command bus (default = 2 times, i.e. DDR)
-gpgpu_dram_timing_opt nbk=16:CCD=2:RRD=6:RCD=12:RAS=28:RP=12:RC=40: CL=12:WL=4:CDLR=5:WR=12:nbkgrp=4:CCDL=3:RTPL=2 # DRAM timing parameters = {nbk:tCCD:tRRD:tRCD:tRAS:tRP:tRC:CL:WL:tCDLR:tWR:nbkgrp:tCCDL:tRTPL}
-rop_latency                          120 # ROP queue latency (default 85)
-dram_latency                         100 # DRAM latency (default 30)
-gpgpu_mem_addr_mapping dramid@8;00000000.00000000.00000000.00000000.0000RRRR.RRRRRRRR.BBBCCCCB.CCSSSSSS # mapping memory address to dram model {dramid@<start bit>;<memory address map>}
-gpgpu_mem_addr_test                    0 # run sweep test to check address mapping for aliased address
-gpgpu_mem_address_mask                    1 # 0 = old addressing mask, 1 = new addressing mask, 2 = new add. mask + flipped bank sel and chip sel bits
-gpuwattch_xml_file  gpuwattch_gtx480.xml # GPUWattch XML file
-power_simulation_enabled                    0 # Turn on power simulator (1=On, 0=Off)
-power_per_cycle_dump                    0 # Dump detailed power output each cycle
-power_trace_enabled                    0 # produce a file for the power trace (1=On, 0=Off)
-power_trace_zlevel                     6 # Compression level of the power trace output log (0=no comp, 9=highest)
-steady_power_levels_enabled                    0 # produce a file for the steady power levels (1=On, 0=Off)
-steady_state_definition                  8:4 # allowed deviation:number of samples
-gpgpu_max_cycle                        0 # terminates gpu simulation early (0 = no limit)
-gpgpu_max_insn                         0 # terminates gpu simulation early (0 = no limit)
-gpgpu_max_cta                          0 # terminates gpu simulation early (0 = no limit)
-gpgpu_runtime_stat                   500 # display runtime statistics such as dram utilization {<freq>:<flag>}
-liveness_message_freq                    1 # Minimum number of seconds between simulation liveness messages (0 = always print)
-gpgpu_flush_l1_cache                    0 # Flush L1 cache at the end of each kernel call
-gpgpu_flush_l2_cache                    0 # Flush L2 cache at the end of each kernel call
-gpgpu_deadlock_detect                    1 # Stop the simulation at deadlock (1=on (default), 0=off)
-gpgpu_ptx_instruction_classification                    0 # if enabled will classify ptx instruction types per kernel (Max 255 kernels now)
-gpgpu_ptx_sim_mode                     0 # Select between Performance (default) or Functional simulation (1)
-gpgpu_clock_domains 700.0:700.0:700.0:924.0 # Clock Domain Frequencies in MhZ {<Core Clock>:<ICNT Clock>:<L2 Clock>:<DRAM Clock>}
-gpgpu_max_concurrent_kernel                    8 # maximum kernels that can run concurrently on GPU
-gpgpu_cflog_interval                    0 # Interval between each snapshot in control flow logger
-visualizer_enabled                     0 # Turn on visualizer output (1=On, 0=Off)
-visualizer_outputfile                 NULL # Specifies the output log file for visualizer
-visualizer_zlevel                      6 # Compression level of the visualizer output log (0=no comp, 9=highest)
-trace_enabled                          0 # Turn on traces
-trace_components                    none # comma seperated list of traces to enable. Complete list found in trace_streams.tup. Default none
-trace_sampling_core                    0 # The core which is printed using CORE_DPRINTF. Default 0
-trace_sampling_memory_partition                   -1 # The memory partition which is printed using MEMPART_DPRINTF. Default -1 (i.e. all)
-enable_ptx_file_line_stats                    1 # Turn on PTX source line statistic profiling. (1 = On)
-ptx_line_stats_filename gpgpu_inst_stats.txt # Output file for PTX source line statistics.
-save_embedded_ptx                      0 # saves ptx files embedded in binary as <n>.ptx
-keep                                   0 # keep intermediate files created by GPGPU-Sim when interfacing with external programs
-gpgpu_ptx_save_converted_ptxplus                    0 # Saved converted ptxplus to a file
-ptx_opcode_latency_int         4,13,4,5,145 # Opcode latencies for integers <ADD,MAX,MUL,MAD,DIV>Default 1,1,19,25,145
-ptx_opcode_latency_fp          4,13,4,5,39 # Opcode latencies for single precision floating points <ADD,MAX,MUL,MAD,DIV>Default 1,1,1,1,30
-ptx_opcode_latency_dp         8,19,8,8,330 # Opcode latencies for double precision floating points <ADD,MAX,MUL,MAD,DIV>Default 8,8,8,8,335
-ptx_opcode_initiation_int            1,2,2,1,8 # Opcode initiation intervals for integers <ADD,MAX,MUL,MAD,DIV>Default 1,1,4,4,32
-ptx_opcode_initiation_fp            1,2,1,1,4 # Opcode initiation intervals for single precision floating points <ADD,MAX,MUL,MAD,DIV>Default 1,1,1,1,5
-ptx_opcode_initiation_dp         8,16,8,8,130 # Opcode initiation intervals for double precision floating points <ADD,MAX,MUL,MAD,DIV>Default 8,8,8,8,130
DRAM Timing Options:
nbk                                    16 # number of banks
CCD                                     2 # column to column delay
RRD                                     6 # minimal delay between activation of rows in different banks
RCD                                    12 # row to column delay
RAS                                    28 # time needed to activate row
RP                                     12 # time needed to precharge (deactivate) row
RC                                     40 # row cycle time
CDLR                                    5 # switching from write to read (changes tWTR)
WR                                     12 # last data-in to row precharge
CL                                     12 # CAS latency
WL                                      4 # Write latency
nbkgrp                                  4 # number of bank groups
CCDL                                    3 # column to column delay between accesses to different bank groups
RTPL                                    2 # read to precharge delay between accesses to different bank groups
Total number of memory sub partition = 12
addr_dec_mask[CHIP]  = 0000000000000000 	high:64 low:0
addr_dec_mask[BK]    = 000000000000e100 	high:16 low:8
addr_dec_mask[ROW]   = 000000000fff0000 	high:28 low:16
addr_dec_mask[COL]   = 0000000000001eff 	high:13 low:0
addr_dec_mask[BURST] = 000000000000003f 	high:6 low:0
sub_partition_id_mask = 0000000000000100
GPGPU-Sim uArch: clock freqs: 700000000.000000:700000000.000000:700000000.000000:924000000.000000
GPGPU-Sim uArch: clock periods: 0.00000000142857142857:0.00000000142857142857:0.00000000142857142857:0.00000000108225108225
*** Initializing Memory Statistics ***
GPGPU-Sim uArch: interconnect node map (shaderID+MemID to icntID)
GPGPU-Sim uArch: Memory nodes ID start from index: 15
GPGPU-Sim uArch:    0   1   2   3   4
GPGPU-Sim uArch:    5   6   7   8   9
GPGPU-Sim uArch:   10  11  12  13  14
GPGPU-Sim uArch:   15  16  17  18  19
GPGPU-Sim uArch:   20  21  22  23  24
GPGPU-Sim uArch:   25  26
GPGPU-Sim uArch: interconnect node reverse map (icntID to shaderID+MemID)
GPGPU-Sim uArch: Memory nodes start from ID: 15
GPGPU-Sim uArch:    0   1   2   3   4
GPGPU-Sim uArch:    5   6   7   8   9
GPGPU-Sim uArch:   10  11  12  13  14
GPGPU-Sim uArch:   15  16  17  18  19
GPGPU-Sim uArch:   20  21  22  23  24
GPGPU-Sim uArch:   25  26
316bcbff5f8f022bb22b20bb4721e93e  /sciclone/data20/adwait/applications/benchmarks/CUDA/RAY/gpgpu_ptx_sim__RAY
GPGPU-Sim uArch: performance model initialization complete.
GPGPU-Sim PTX: __cudaRegisterFatBinary, fat_cubin_handle = 1, filename=rayTracing.cu
self exe links to: /sciclone/data20/adwait/applications/benchmarks/CUDA/RAY/gpgpu_ptx_sim__RAY
Running md5sum using "md5sum /sciclone/data20/adwait/applications/benchmarks/CUDA/RAY/gpgpu_ptx_sim__RAY "
Parsing file _cuobjdump_complete_output_tgFYtu
######### cuobjdump parser ########
## Adding new section ELF
Adding arch: sm_20
Adding identifier: rayTracing.cu
## Adding new section PTX
Adding ptx filename: _cuobjdump_1.ptx
Adding arch: sm_20
Adding identifier: rayTracing.cu
Done parsing!!!
GPGPU-Sim PTX: __cudaRegisterFunction _Z6renderPjP4Nodejjff : hostFun 0x0x40ce13, fat_cubin_handle = 1
GPGPU-Sim PTX: allocating stack frame region for .param "__cudaretf__Zmi6float3S_" from 0x0 to 0xc
GPGPU-Sim PTX: allocating stack frame region for .param "__cudaparmf1__Zmi6float3S_" from 0xc to 0x18
GPGPU-Sim PTX: allocating stack frame region for .param "__cudaparmf2__Zmi6float3S_" from 0x18 to 0x24
GPGPU-Sim PTX: allocating stack frame region for .param "__cudaretf__Z9normalize6float3" from 0x0 to 0xc
GPGPU-Sim PTX: allocating stack frame region for .param "__cudaparmf1__Z9normalize6float3" from 0xc to 0x18
GPGPU-Sim PTX: allocating stack frame region for .param "__cudaretf__Z18intersectionSphere5Rayon6float3f" from 0x0 to 0x4
GPGPU-Sim PTX: allocating stack frame region for .param "__cudaparmf1__Z18intersectionSphere5Rayon6float3f" from 0x4 to 0x1c
GPGPU-Sim PTX: allocating stack frame region for .param "__cudaparmf2__Z18intersectionSphere5Rayon6float3f" from 0x1c to 0x28
GPGPU-Sim PTX: allocating stack frame region for .param "__cudaparmf3__Z18intersectionSphere5Rayon6float3f" from 0x28 to 0x2c
GPGPU-Sim PTX: allocating stack frame region for .param "__cudaretf__Z16intersectionPlan5Rayon6float3S0_" from 0x0 to 0x4
GPGPU-Sim PTX: allocating stack frame region for .param "__cudaparmf1__Z16intersectionPlan5Rayon6float3S0_" from 0x4 to 0x1c
GPGPU-Sim PTX: allocating stack frame region for .param "__cudaparmf2__Z16intersectionPlan5Rayon6float3S0_" from 0x1c to 0x28
GPGPU-Sim PTX: allocating stack frame region for .param "__cudaparmf3__Z16intersectionPlan5Rayon6float3S0_" from 0x28 to 0x34
GPGPU-Sim PTX: allocating stack frame region for .param "__cudaretf__Z10getNormale6float3S_" from 0x0 to 0xc
GPGPU-Sim PTX: allocating stack frame region for .param "__cudaparmf1__Z10getNormale6float3S_" from 0xc to 0x18
GPGPU-Sim PTX: allocating stack frame region for .param "__cudaparmf2__Z10getNormale6float3S_" from 0x18 to 0x24
GPGPU-Sim PTX: allocating stack frame region for .param "__cudaretf__Z11getNormaleP6float3" from 0x0 to 0xc
GPGPU-Sim PTX: allocating stack frame region for .param "__cudaparmf1__Z11getNormaleP6float3" from 0xc to 0x18
GPGPU-Sim PTX: allocating stack frame region for .param "__cudaretf__Z14rgbaFloatToInt6float4" from 0x0 to 0x4
GPGPU-Sim PTX: allocating stack frame region for .param "__cudaparmf1__Z14rgbaFloatToInt6float4" from 0x4 to 0x14
GPGPU-Sim PTX: allocating stack frame region for .param "__cudaretf__Z12notShadowRayP4Node6float3S1_f" from 0x0 to 0x4
GPGPU-Sim PTX: allocating stack frame region for .param "__cudaparmf1__Z12notShadowRayP4Node6float3S1_f" from 0x4 to 0xc
GPGPU-Sim PTX: allocating stack frame region for .param "__cudaparmf2__Z12notShadowRayP4Node6float3S1_f" from 0xc to 0x18
GPGPU-Sim PTX: allocating stack frame region for .param "__cudaparmf3__Z12notShadowRayP4Node6float3S1_f" from 0x18 to 0x24
GPGPU-Sim PTX: allocating stack frame region for .param "__cudaparmf4__Z12notShadowRayP4Node6float3S1_f" from 0x24 to 0x28
GPGPU-Sim PTX: allocating stack frame region for .param "__cudaretf__Z15float2int_pow20f" from 0x0 to 0x4
GPGPU-Sim PTX: allocating stack frame region for .param "__cudaparmf1__Z15float2int_pow20f" from 0x4 to 0x8
GPGPU-Sim PTX: allocating stack frame region for .param "__cudaretf__Z15float2int_pow50f" from 0x0 to 0x4
GPGPU-Sim PTX: allocating stack frame region for .param "__cudaparmf1__Z15float2int_pow50f" from 0x4 to 0x8
GPGPU-Sim PTX: allocating stack frame region for .param "__cudaparmf1__ZN4dim3C1Ejjj" from 0x0 to 0x8
GPGPU-Sim PTX: allocating stack frame region for .param "__cudaparmf2__ZN4dim3C1Ejjj" from 0x8 to 0xc
GPGPU-Sim PTX: allocating stack frame region for .param "__cudaparmf3__ZN4dim3C1Ejjj" from 0xc to 0x10
GPGPU-Sim PTX: allocating stack frame region for .param "__cudaparmf4__ZN4dim3C1Ejjj" from 0x10 to 0x14
GPGPU-Sim PTX: instruction assembly for function '_Zmi6float3S_'...   done.
GPGPU-Sim PTX: finding reconvergence points for '_Zmi6float3S_'...
GPGPU-Sim PTX: Finding dominators for '_Zmi6float3S_'...
GPGPU-Sim PTX: Finding immediate dominators for '_Zmi6float3S_'...
GPGPU-Sim PTX: Finding postdominators for '_Zmi6float3S_'...
GPGPU-Sim PTX: Finding immediate postdominators for '_Zmi6float3S_'...
GPGPU-Sim PTX: pre-decoding instructions for '_Zmi6float3S_'...
GPGPU-Sim PTX: reconvergence points for _Zmi6float3S_...
GPGPU-Sim PTX: ... end of reconvergence points for _Zmi6float3S_
GPGPU-Sim PTX: ... done pre-decoding instructions for '_Zmi6float3S_'.
GPGPU-Sim PTX: instruction assembly for function '_Z9normalize6float3'...   done.
GPGPU-Sim PTX: finding reconvergence points for '_Z9normalize6float3'...
GPGPU-Sim PTX: Finding dominators for '_Z9normalize6float3'...
GPGPU-Sim PTX: Finding immediate dominators for '_Z9normalize6float3'...
GPGPU-Sim PTX: Finding postdominators for '_Z9normalize6float3'...
GPGPU-Sim PTX: Finding immediate postdominators for '_Z9normalize6float3'...
GPGPU-Sim PTX: pre-decoding instructions for '_Z9normalize6float3'...
GPGPU-Sim PTX: reconvergence points for _Z9normalize6float3...
GPGPU-Sim PTX: ... end of reconvergence points for _Z9normalize6float3
GPGPU-Sim PTX: ... done pre-decoding instructions for '_Z9normalize6float3'.
GPGPU-Sim PTX: instruction assembly for function '_Z18intersectionSphere5Rayon6float3f'...   done.
GPGPU-Sim PTX: finding reconvergence points for '_Z18intersectionSphere5Rayon6float3f'...
GPGPU-Sim PTX: Finding dominators for '_Z18intersectionSphere5Rayon6float3f'...
GPGPU-Sim PTX: Finding immediate dominators for '_Z18intersectionSphere5Rayon6float3f'...
GPGPU-Sim PTX: Finding postdominators for '_Z18intersectionSphere5Rayon6float3f'...
GPGPU-Sim PTX: Finding immediate postdominators for '_Z18intersectionSphere5Rayon6float3f'...
GPGPU-Sim PTX: pre-decoding instructions for '_Z18intersectionSphere5Rayon6float3f'...
GPGPU-Sim PTX: reconvergence points for _Z18intersectionSphere5Rayon6float3f...
GPGPU-Sim PTX:  1 (potential) branch divergence @  PC=0x250 (_1.ptx:173) @%p2 bra $Lt_2_3074;
GPGPU-Sim PTX:    immediate post dominator      @  PC=0x2c0 (_1.ptx:193) mov.f32 %f39, %f32;
GPGPU-Sim PTX:  2 (potential) branch divergence @  PC=0x260 (_1.ptx:175) bra.uni $Lt_2_2818;
GPGPU-Sim PTX:    immediate post dominator      @  PC=0x2c0 (_1.ptx:193) mov.f32 %f39, %f32;
GPGPU-Sim PTX:  3 (potential) branch divergence @  PC=0x280 (_1.ptx:180) @!%p3 bra $Lt_2_3586;
GPGPU-Sim PTX:    immediate post dominator      @  PC=0x2c0 (_1.ptx:193) mov.f32 %f39, %f32;
GPGPU-Sim PTX:  4 (potential) branch divergence @  PC=0x290 (_1.ptx:182) bra.uni $Lt_2_3330;
GPGPU-Sim PTX:    immediate post dominator      @  PC=0x2c0 (_1.ptx:193) mov.f32 %f39, %f32;
GPGPU-Sim PTX: ... end of reconvergence points for _Z18intersectionSphere5Rayon6float3f
GPGPU-Sim PTX: ... done pre-decoding instructions for '_Z18intersectionSphere5Rayon6float3f'.
GPGPU-Sim PTX: instruction assembly for function '_Z16intersectionPlan5Rayon6float3S0_'...   done.
GPGPU-Sim PTX: finding reconvergence points for '_Z16intersectionPlan5Rayon6float3S0_'...
GPGPU-Sim PTX: Finding dominators for '_Z16intersectionPlan5Rayon6float3S0_'...
GPGPU-Sim PTX: Finding immediate dominators for '_Z16intersectionPlan5Rayon6float3S0_'...
GPGPU-Sim PTX: Finding postdominators for '_Z16intersectionPlan5Rayon6float3S0_'...
GPGPU-Sim PTX: Finding immediate postdominators for '_Z16intersectionPlan5Rayon6float3S0_'...
GPGPU-Sim PTX: pre-decoding instructions for '_Z16intersectionPlan5Rayon6float3S0_'...
GPGPU-Sim PTX: reconvergence points for _Z16intersectionPlan5Rayon6float3S0_...
GPGPU-Sim PTX:  1 (potential) branch divergence @  PC=0x320 (_1.ptx:214) @!%p1 bra $Lt_3_2050;
GPGPU-Sim PTX:    immediate post dominator      @  PC=0x368 (_1.ptx:227) mov.f32 %f14, %f9;
GPGPU-Sim PTX:  2 (potential) branch divergence @  PC=0x330 (_1.ptx:216) bra.uni $Lt_3_1794;
GPGPU-Sim PTX:    immediate post dominator      @  PC=0x368 (_1.ptx:227) mov.f32 %f14, %f9;
GPGPU-Sim PTX: ... end of reconvergence points for _Z16intersectionPlan5Rayon6float3S0_
GPGPU-Sim PTX: ... done pre-decoding instructions for '_Z16intersectionPlan5Rayon6float3S0_'.
GPGPU-Sim PTX: instruction assembly for function '_Z10getNormale6float3S_'...   done.
GPGPU-Sim PTX: finding reconvergence points for '_Z10getNormale6float3S_'...
GPGPU-Sim PTX: Finding dominators for '_Z10getNormale6float3S_'...
GPGPU-Sim PTX: Finding immediate dominators for '_Z10getNormale6float3S_'...
GPGPU-Sim PTX: Finding postdominators for '_Z10getNormale6float3S_'...
GPGPU-Sim PTX: Finding immediate postdominators for '_Z10getNormale6float3S_'...
GPGPU-Sim PTX: pre-decoding instructions for '_Z10getNormale6float3S_'...
GPGPU-Sim PTX: reconvergence points for _Z10getNormale6float3S_...
GPGPU-Sim PTX: ... end of reconvergence points for _Z10getNormale6float3S_
GPGPU-Sim PTX: ... done pre-decoding instructions for '_Z10getNormale6float3S_'.
GPGPU-Sim PTX: instruction assembly for function '_Z11getNormaleP6float3'...   done.
GPGPU-Sim PTX: finding reconvergence points for '_Z11getNormaleP6float3'...
GPGPU-Sim PTX: Finding dominators for '_Z11getNormaleP6float3'...
GPGPU-Sim PTX: Finding immediate dominators for '_Z11getNormaleP6float3'...
GPGPU-Sim PTX: Finding postdominators for '_Z11getNormaleP6float3'...
GPGPU-Sim PTX: Finding immediate postdominators for '_Z11getNormaleP6float3'...
GPGPU-Sim PTX: pre-decoding instructions for '_Z11getNormaleP6float3'...
GPGPU-Sim PTX: reconvergence points for _Z11getNormaleP6float3...
GPGPU-Sim PTX: ... end of reconvergence points for _Z11getNormaleP6float3
GPGPU-Sim PTX: ... done pre-decoding instructions for '_Z11getNormaleP6float3'.
GPGPU-Sim PTX: instruction assembly for function '_Z14rgbaFloatToInt6float4'...   done.
GPGPU-Sim PTX: finding reconvergence points for '_Z14rgbaFloatToInt6float4'...
GPGPU-Sim PTX: Finding dominators for '_Z14rgbaFloatToInt6float4'...
GPGPU-Sim PTX: Finding immediate dominators for '_Z14rgbaFloatToInt6float4'...
GPGPU-Sim PTX: Finding postdominators for '_Z14rgbaFloatToInt6float4'...
GPGPU-Sim PTX: Finding immediate postdominators for '_Z14rgbaFloatToInt6float4'...
GPGPU-Sim PTX: pre-decoding instructions for '_Z14rgbaFloatToInt6float4'...
GPGPU-Sim PTX: reconvergence points for _Z14rgbaFloatToInt6float4...
GPGPU-Sim PTX: ... end of reconvergence points for _Z14rgbaFloatToInt6float4
GPGPU-Sim PTX: ... done pre-decoding instructions for '_Z14rgbaFloatToInt6float4'.
GPGPU-Sim PTX: allocating global region for "cnode" from 0x100 to 0x1a0 (global memory space)
GPGPU-Sim PTX: instruction assembly for function '_Z12notShadowRayP4Node6float3S1_f'...   done.
GPGPU-Sim PTX: finding reconvergence points for '_Z12notShadowRayP4Node6float3S1_f'...
GPGPU-Sim PTX: Finding dominators for '_Z12notShadowRayP4Node6float3S1_f'...
GPGPU-Sim PTX: Finding immediate dominators for '_Z12notShadowRayP4Node6float3S1_f'...
GPGPU-Sim PTX: Finding postdominators for '_Z12notShadowRayP4Node6float3S1_f'...
GPGPU-Sim PTX: Finding immediate postdominators for '_Z12notShadowRayP4Node6float3S1_f'...
GPGPU-Sim PTX: pre-decoding instructions for '_Z12notShadowRayP4Node6float3S1_f'...
GPGPU-Sim PTX: reconvergence points for _Z12notShadowRayP4Node6float3S1_f...
GPGPU-Sim PTX:  1 (potential) branch divergence @  PC=0x638 (_1.ptx:364) @%p1 bra $Lt_7_8450;
GPGPU-Sim PTX:    immediate post dominator      @  PC=0x828 (_1.ptx:441) mov.f32 %f58, 0f00000000;    // 0
GPGPU-Sim PTX:  2 (potential) branch divergence @  PC=0x658 (_1.ptx:369) @!%p2 bra $Lt_7_8962;
GPGPU-Sim PTX:    immediate post dominator      @  PC=0x6b8 (_1.ptx:385) mov.f32 %f28, %f20;
GPGPU-Sim PTX:  3 (potential) branch divergence @  PC=0x668 (_1.ptx:371) bra.uni $Lt_7_8706;
GPGPU-Sim PTX:    immediate post dominator      @  PC=0x6b8 (_1.ptx:385) mov.f32 %f28, %f20;
GPGPU-Sim PTX:  4 (potential) branch divergence @  PC=0x6c0 (_1.ptx:386) bra.uni $Lt_7_8194;
GPGPU-Sim PTX:    immediate post dominator      @  PC=0x828 (_1.ptx:441) mov.f32 %f58, 0f00000000;    // 0
GPGPU-Sim PTX:  5 (potential) branch divergence @  PC=0x7b0 (_1.ptx:418) @%p5 bra $Lt_7_9474;
GPGPU-Sim PTX:    immediate post dominator      @  PC=0x820 (_1.ptx:438) mov.f32 %f28, %f51;
GPGPU-Sim PTX:  6 (potential) branch divergence @  PC=0x7c0 (_1.ptx:420) bra.uni $Lt_7_9730;
GPGPU-Sim PTX:    immediate post dominator      @  PC=0x820 (_1.ptx:438) mov.f32 %f28, %f51;
GPGPU-Sim PTX:  7 (potential) branch divergence @  PC=0x7e0 (_1.ptx:425) @!%p6 bra $Lt_7_9986;
GPGPU-Sim PTX:    immediate post dominator      @  PC=0x820 (_1.ptx:438) mov.f32 %f28, %f51;
GPGPU-Sim PTX:  8 (potential) branch divergence @  PC=0x7f0 (_1.ptx:427) bra.uni $Lt_7_9730;
GPGPU-Sim PTX:    immediate post dominator      @  PC=0x820 (_1.ptx:438) mov.f32 %f28, %f51;
GPGPU-Sim PTX:  9 (potential) branch divergence @  PC=0x838 (_1.ptx:443) @!%p7 bra $Lt_7_10242;
GPGPU-Sim PTX:    immediate post dominator      @  PC=0x8e8 (_1.ptx:468) add.s32 %r1, %r1, 1;
GPGPU-Sim PTX: 10 (potential) branch divergence @  PC=0x8d8 (_1.ptx:463) @!%p8 bra $Lt_7_10242;
GPGPU-Sim PTX:    immediate post dominator      @  PC=0x8e8 (_1.ptx:468) add.s32 %r1, %r1, 1;
GPGPU-Sim PTX: 11 (potential) branch divergence @  PC=0x908 (_1.ptx:472) @%p9 bra $Lt_7_10754;
GPGPU-Sim PTX:    immediate post dominator      @  PC=0x960 (_1.ptx:486) selp.s32 %r10, 1, 0, %p11;
GPGPU-Sim PTX: 12 (potential) branch divergence @  PC=0x930 (_1.ptx:477) @%p10 bra $L_7_7170;
GPGPU-Sim PTX:    immediate post dominator      @  PC=0x960 (_1.ptx:486) selp.s32 %r10, 1, 0, %p11;
GPGPU-Sim PTX: 13 (potential) branch divergence @  PC=0x938 (_1.ptx:478) bra.uni $L_7_7938;
GPGPU-Sim PTX:    immediate post dominator      @  PC=0x960 (_1.ptx:486) selp.s32 %r10, 1, 0, %p11;
GPGPU-Sim PTX: ... end of reconvergence points for _Z12notShadowRayP4Node6float3S1_f
GPGPU-Sim PTX: ... done pre-decoding instructions for '_Z12notShadowRayP4Node6float3S1_f'.
GPGPU-Sim PTX: instruction assembly for function '_Z15float2int_pow20f'...   done.
GPGPU-Sim PTX: finding reconvergence points for '_Z15float2int_pow20f'...
GPGPU-Sim PTX: Finding dominators for '_Z15float2int_pow20f'...
GPGPU-Sim PTX: Finding immediate dominators for '_Z15float2int_pow20f'...
GPGPU-Sim PTX: Finding postdominators for '_Z15float2int_pow20f'...
GPGPU-Sim PTX: Finding immediate postdominators for '_Z15float2int_pow20f'...
GPGPU-Sim PTX: pre-decoding instructions for '_Z15float2int_pow20f'...
GPGPU-Sim PTX: reconvergence points for _Z15float2int_pow20f...
GPGPU-Sim PTX: ... end of reconvergence points for _Z15float2int_pow20f
GPGPU-Sim PTX: ... done pre-decoding instructions for '_Z15float2int_pow20f'.
GPGPU-Sim PTX: instruction assembly for function '_Z15float2int_pow50f'...   done.
GPGPU-Sim PTX: finding reconvergence points for '_Z15float2int_pow50f'...
GPGPU-Sim PTX: Finding dominators for '_Z15float2int_pow50f'...
GPGPU-Sim PTX: Finding immediate dominators for '_Z15float2int_pow50f'...
GPGPU-Sim PTX: Finding postdominators for '_Z15float2int_pow50f'...
GPGPU-Sim PTX: Finding immediate postdominators for '_Z15float2int_pow50f'...
GPGPU-Sim PTX: pre-decoding instructions for '_Z15float2int_pow50f'...
GPGPU-Sim PTX: reconvergence points for _Z15float2int_pow50f...
GPGPU-Sim PTX: ... end of reconvergence points for _Z15float2int_pow50f
GPGPU-Sim PTX: ... done pre-decoding instructions for '_Z15float2int_pow50f'.
GPGPU-Sim PTX: allocating constant region for "MView" from 0x200 to 0x230 (global memory space) 1
GPGPU-Sim PTX: allocating stack frame region for .local "__cuda___cuda_local_var_35463_9_non_const_pile_32240" from 0x0 to 0x50
GPGPU-Sim PTX: instruction assembly for function '_Z6renderPjP4Nodejjff'...   done.
GPGPU-Sim PTX: finding reconvergence points for '_Z6renderPjP4Nodejjff'...
GPGPU-Sim PTX: Finding dominators for '_Z6renderPjP4Nodejjff'...
GPGPU-Sim PTX: Finding immediate dominators for '_Z6renderPjP4Nodejjff'...
GPGPU-Sim PTX: Finding postdominators for '_Z6renderPjP4Nodejjff'...
GPGPU-Sim PTX: Finding immediate postdominators for '_Z6renderPjP4Nodejjff'...
GPGPU-Sim PTX: pre-decoding instructions for '_Z6renderPjP4Nodejjff'...
GPGPU-Sim PTX: reconvergence points for _Z6renderPjP4Nodejjff...
GPGPU-Sim PTX:  1 (potential) branch divergence @  PC=0xdb0 (_1.ptx:663) @%p1 bra $Lt_10_44034;
GPGPU-Sim PTX:    immediate post dominator      @  PC=0x2370 (_1.ptx:1495) exit;
GPGPU-Sim PTX:  2 (potential) branch divergence @  PC=0x1028 (_1.ptx:751) @%p2 bra $Lt_10_45570;
GPGPU-Sim PTX:    immediate post dominator      @  PC=0x11b8 (_1.ptx:815) mov.f32 %f108, 0f00000000;   // 0
GPGPU-Sim PTX:  3 (potential) branch divergence @  PC=0x1048 (_1.ptx:756) @!%p3 bra $Lt_10_46082;
GPGPU-Sim PTX:    immediate post dominator      @  PC=0x1090 (_1.ptx:769) mov.f32 %f87, %f82;
GPGPU-Sim PTX:  4 (potential) branch divergence @  PC=0x1058 (_1.ptx:758) bra.uni $Lt_10_45826;
GPGPU-Sim PTX:    immediate post dominator      @  PC=0x1090 (_1.ptx:769) mov.f32 %f87, %f82;
GPGPU-Sim PTX:  5 (potential) branch divergence @  PC=0x1098 (_1.ptx:770) bra.uni $Lt_10_45314;
GPGPU-Sim PTX:    immediate post dominator      @  PC=0x11b8 (_1.ptx:815) mov.f32 %f108, 0f00000000;   // 0
GPGPU-Sim PTX:  6 (potential) branch divergence @  PC=0x1140 (_1.ptx:793) @%p6 bra $Lt_10_46594;
GPGPU-Sim PTX:    immediate post dominator      @  PC=0x11b0 (_1.ptx:813) mov.f32 %f87, %f101;
GPGPU-Sim PTX:  7 (potential) branch divergence @  PC=0x1150 (_1.ptx:795) bra.uni $Lt_10_46850;
GPGPU-Sim PTX:    immediate post dominator      @  PC=0x11b0 (_1.ptx:813) mov.f32 %f87, %f101;
GPGPU-Sim PTX:  8 (potential) branch divergence @  PC=0x1170 (_1.ptx:800) @!%p7 bra $Lt_10_47106;
GPGPU-Sim PTX:    immediate post dominator      @  PC=0x11b0 (_1.ptx:813) mov.f32 %f87, %f101;
GPGPU-Sim PTX:  9 (potential) branch divergence @  PC=0x1180 (_1.ptx:802) bra.uni $Lt_10_46850;
GPGPU-Sim PTX:    immediate post dominator      @  PC=0x11b0 (_1.ptx:813) mov.f32 %f87, %f101;
GPGPU-Sim PTX: 10 (potential) branch divergence @  PC=0x11f8 (_1.ptx:823) @%p8 bra $Lt_10_47362;
GPGPU-Sim PTX:    immediate post dominator      @  PC=0x1210 (_1.ptx:829) add.s32 %r25, %r25, 1;
GPGPU-Sim PTX: 11 (potential) branch divergence @  PC=0x1230 (_1.ptx:833) @%p9 bra $Lt_10_45058;
GPGPU-Sim PTX:    immediate post dominator      @  PC=0x1238 (_1.ptx:834) mov.f32 %f109, 0f00000000;   // 0
GPGPU-Sim PTX: 12 (potential) branch divergence @  PC=0x1280 (_1.ptx:843) @%p10 bra $Lt_10_48130;
GPGPU-Sim PTX:    immediate post dominator      @  PC=0x2140 (_1.ptx:1416) add.s32 %r23, %r23, 1;
GPGPU-Sim PTX: 13 (potential) branch divergence @  PC=0x1330 (_1.ptx:868) @%p11 bra $Lt_10_48898;
GPGPU-Sim PTX:    immediate post dominator      @  PC=0x13b8 (_1.ptx:888) sub.f32 %f136, %f21, %f119;
GPGPU-Sim PTX: 14 (potential) branch divergence @  PC=0x1350 (_1.ptx:873) bra.uni $Lt_10_48642;
GPGPU-Sim PTX:    immediate post dominator      @  PC=0x13b8 (_1.ptx:888) sub.f32 %f136, %f21, %f119;
GPGPU-Sim PTX: 15 (potential) branch divergence @  PC=0x1430 (_1.ptx:903) @!%p12 bra $Lt_10_49410;
GPGPU-Sim PTX:    immediate post dominator      @  PC=0x1470 (_1.ptx:915) mov.f32 %f153, 0f3d4ccccd;   // 0.05
GPGPU-Sim PTX: 16 (potential) branch divergence @  PC=0x1450 (_1.ptx:908) bra.uni $Lt_10_49154;
GPGPU-Sim PTX:    immediate post dominator      @  PC=0x1470 (_1.ptx:915) mov.f32 %f153, 0f3d4ccccd;   // 0.05
GPGPU-Sim PTX: 17 (potential) branch divergence @  PC=0x1578 (_1.ptx:949) @!%p13 bra $Lt_10_58114;
GPGPU-Sim PTX:    immediate post dominator      @  PC=0x2080 (_1.ptx:1388) add.f32 %f399, %f126, %f126;
GPGPU-Sim PTX: 18 (potential) branch divergence @  PC=0x15c0 (_1.ptx:961) @%p14 bra $Lt_10_49922;
GPGPU-Sim PTX:    immediate post dominator      @  PC=0x17b0 (_1.ptx:1039) mov.f32 %f221, 0f00000000;   // 0
GPGPU-Sim PTX: 19 (potential) branch divergence @  PC=0x15e0 (_1.ptx:966) @!%p15 bra $Lt_10_50434;
GPGPU-Sim PTX:    immediate post dominator      @  PC=0x1638 (_1.ptx:982) mov.f32 %f190, %f183;
GPGPU-Sim PTX: 20 (potential) branch divergence @  PC=0x15f0 (_1.ptx:968) bra.uni $Lt_10_50178;
GPGPU-Sim PTX:    immediate post dominator      @  PC=0x1638 (_1.ptx:982) mov.f32 %f190, %f183;
GPGPU-Sim PTX: 21 (potential) branch divergence @  PC=0x1640 (_1.ptx:983) bra.uni $Lt_10_49666;
GPGPU-Sim PTX:    immediate post dominator      @  PC=0x17b0 (_1.ptx:1039) mov.f32 %f221, 0f00000000;   // 0
GPGPU-Sim PTX: 22 (potential) branch divergence @  PC=0x1738 (_1.ptx:1016) @%p18 bra $Lt_10_50946;
GPGPU-Sim PTX:    immediate post dominator      @  PC=0x17a8 (_1.ptx:1036) mov.f32 %f190, %f214;
GPGPU-Sim PTX: 23 (potential) branch divergence @  PC=0x1748 (_1.ptx:1018) bra.uni $Lt_10_51202;
GPGPU-Sim PTX:    immediate post dominator      @  PC=0x17a8 (_1.ptx:1036) mov.f32 %f190, %f214;
GPGPU-Sim PTX: 24 (potential) branch divergence @  PC=0x1768 (_1.ptx:1023) @!%p19 bra $Lt_10_51458;
GPGPU-Sim PTX:    immediate post dominator      @  PC=0x17a8 (_1.ptx:1036) mov.f32 %f190, %f214;
GPGPU-Sim PTX: 25 (potential) branch divergence @  PC=0x1778 (_1.ptx:1025) bra.uni $Lt_10_51202;
GPGPU-Sim PTX:    immediate post dominator      @  PC=0x17a8 (_1.ptx:1036) mov.f32 %f190, %f214;
GPGPU-Sim PTX: 26 (potential) branch divergence @  PC=0x17c0 (_1.ptx:1041) @!%p20 bra $Lt_10_58370;
GPGPU-Sim PTX:    immediate post dominator      @  PC=0x1828 (_1.ptx:1057) add.s32 %r50, %r50, 1;
GPGPU-Sim PTX: 27 (potential) branch divergence @  PC=0x1818 (_1.ptx:1052) @!%p21 bra $Lt_10_58370;
GPGPU-Sim PTX:    immediate post dominator      @  PC=0x1828 (_1.ptx:1057) add.s32 %r50, %r50, 1;
GPGPU-Sim PTX: 28 (potential) branch divergence @  PC=0x1848 (_1.ptx:1061) @%p22 bra $Lt_10_58882;
GPGPU-Sim PTX:    immediate post dominator      @  PC=0x1880 (_1.ptx:1071) @!%p23 bra $Lt_10_58114;
GPGPU-Sim PTX: 29 (potential) branch divergence @  PC=0x1860 (_1.ptx:1064) @%p23 bra $L_10_42498;
GPGPU-Sim PTX:    immediate post dominator      @  PC=0x1880 (_1.ptx:1071) @!%p23 bra $Lt_10_58114;
GPGPU-Sim PTX: 30 (potential) branch divergence @  PC=0x1868 (_1.ptx:1065) bra.uni $L_10_43266;
GPGPU-Sim PTX:    immediate post dominator      @  PC=0x1880 (_1.ptx:1071) @!%p23 bra $Lt_10_58114;
GPGPU-Sim PTX: 31 (potential) branch divergence @  PC=0x1880 (_1.ptx:1071) @!%p23 bra $Lt_10_58114;
GPGPU-Sim PTX:    immediate post dominator      @  PC=0x2080 (_1.ptx:1388) add.f32 %f399, %f126, %f126;
GPGPU-Sim PTX: 32 (potential) branch divergence @  PC=0x19c8 (_1.ptx:1115) @!%p24 bra $Lt_10_51714;
GPGPU-Sim PTX:    immediate post dominator      @  PC=0x2040 (_1.ptx:1375) mov.f32 %f394, 0f3f4ccccd;   // 0.8
GPGPU-Sim PTX: 33 (potential) branch divergence @  PC=0x19d8 (_1.ptx:1118) bra.uni $LDWendi___isnanf_192_1;
GPGPU-Sim PTX:    immediate post dominator      @  PC=0x2040 (_1.ptx:1375) mov.f32 %f394, 0f3f4ccccd;   // 0.8
GPGPU-Sim PTX: 34 (potential) branch divergence @  PC=0x19f8 (_1.ptx:1124) @!%p25 bra $Lt_10_7682;
GPGPU-Sim PTX:    immediate post dominator      @  PC=0x2040 (_1.ptx:1375) mov.f32 %f394, 0f3f4ccccd;   // 0.8
GPGPU-Sim PTX: 35 (potential) branch divergence @  PC=0x1a00 (_1.ptx:1125) bra.uni $Lt_10_7938;
GPGPU-Sim PTX:    immediate post dominator      @  PC=0x1a20 (_1.ptx:1133) mov.f32 %f272, 0f7f800000;   // ((1.0F)/(0.0F))
GPGPU-Sim PTX: 36 (potential) branch divergence @  PC=0x1a18 (_1.ptx:1130) bra.uni $LDWendi___isnanf_192_1;
GPGPU-Sim PTX:    immediate post dominator      @  PC=0x2040 (_1.ptx:1375) mov.f32 %f394, 0f3f4ccccd;   // 0.8
GPGPU-Sim PTX: 37 (potential) branch divergence @  PC=0x1a30 (_1.ptx:1135) @!%p26 bra $Lt_10_52226;
GPGPU-Sim PTX:    immediate post dominator      @  PC=0x2040 (_1.ptx:1375) mov.f32 %f394, 0f3f4ccccd;   // 0.8
GPGPU-Sim PTX: 38 (potential) branch divergence @  PC=0x1a40 (_1.ptx:1138) bra.uni $LDWendi___isnanf_192_1;
GPGPU-Sim PTX:    immediate post dominator      @  PC=0x2040 (_1.ptx:1375) mov.f32 %f394, 0f3f4ccccd;   // 0.8
GPGPU-Sim PTX: 39 (potential) branch divergence @  PC=0x1a58 (_1.ptx:1142) @!%p27 bra $Lt_10_52738;
GPGPU-Sim PTX:    immediate post dominator      @  PC=0x2040 (_1.ptx:1375) mov.f32 %f394, 0f3f4ccccd;   // 0.8
GPGPU-Sim PTX: 40 (potential) branch divergence @  PC=0x1ab8 (_1.ptx:1155) bra.uni $LDWendi___isnanf_192_1;
GPGPU-Sim PTX:    immediate post dominator      @  PC=0x2040 (_1.ptx:1375) mov.f32 %f394, 0f3f4ccccd;   // 0.8
GPGPU-Sim PTX: 41 (potential) branch divergence @  PC=0x1ad0 (_1.ptx:1159) @!%p29 bra $Lt_10_53250;
GPGPU-Sim PTX:    immediate post dominator      @  PC=0x2040 (_1.ptx:1375) mov.f32 %f394, 0f3f4ccccd;   // 0.8
GPGPU-Sim PTX: 42 (potential) branch divergence @  PC=0x1b20 (_1.ptx:1170) @!%p30 bra $Lt_10_53762;
GPGPU-Sim PTX:    immediate post dominator      @  PC=0x1b40 (_1.ptx:1177) mov.f32 %f268, %f284;
GPGPU-Sim PTX: 43 (potential) branch divergence @  PC=0x1b48 (_1.ptx:1178) bra.uni $LDWendi___isnanf_192_1;
GPGPU-Sim PTX:    immediate post dominator      @  PC=0x2040 (_1.ptx:1375) mov.f32 %f394, 0f3f4ccccd;   // 0.8
GPGPU-Sim PTX: 44 (potential) branch divergence @  PC=0x1b60 (_1.ptx:1183) @!%p31 bra $Lt_10_59394;
GPGPU-Sim PTX:    immediate post dominator      @  PC=0x2040 (_1.ptx:1375) mov.f32 %f394, 0f3f4ccccd;   // 0.8
GPGPU-Sim PTX: 45 (potential) branch divergence @  PC=0x1b88 (_1.ptx:1188) @!%p32 bra $Lt_10_59394;
GPGPU-Sim PTX:    immediate post dominator      @  PC=0x2040 (_1.ptx:1375) mov.f32 %f394, 0f3f4ccccd;   // 0.8
GPGPU-Sim PTX: 46 (potential) branch divergence @  PC=0x1ba0 (_1.ptx:1192) bra.uni $LDWendi___isnanf_192_1;
GPGPU-Sim PTX:    immediate post dominator      @  PC=0x2040 (_1.ptx:1375) mov.f32 %f394, 0f3f4ccccd;   // 0.8
GPGPU-Sim PTX: 47 (potential) branch divergence @  PC=0x1bd8 (_1.ptx:1202) @%p33 bra $Lt_10_54530;
GPGPU-Sim PTX:    immediate post dominator      @  PC=0x1c20 (_1.ptx:1216) sub.s32 %r64, %r64, 127;
GPGPU-Sim PTX: 48 (potential) branch divergence @  PC=0x1c10 (_1.ptx:1211) bra.uni $Lt_10_54274;
GPGPU-Sim PTX:    immediate post dominator      @  PC=0x1c20 (_1.ptx:1216) sub.s32 %r64, %r64, 127;
GPGPU-Sim PTX: 49 (potential) branch divergence @  PC=0x1c58 (_1.ptx:1224) @!%p34 bra $Lt_10_54786;
GPGPU-Sim PTX:    immediate post dominator      @  PC=0x1c78 (_1.ptx:1232) mov.f32 %f302, 0fbf800000;   // -1
GPGPU-Sim PTX: 50 (potential) branch divergence @  PC=0x1eb0 (_1.ptx:1312) @%p35 bra $Lt_10_55298;
GPGPU-Sim PTX:    immediate post dominator      @  PC=0x1ed8 (_1.ptx:1321) mov.f32 %f367, %f365;
GPGPU-Sim PTX: 51 (potential) branch divergence @  PC=0x1f98 (_1.ptx:1346) @!%p38 bra $Lt_10_55810;
GPGPU-Sim PTX:    immediate post dominator      @  PC=0x1fa8 (_1.ptx:1351) mov.f32 %f284, %f386;
GPGPU-Sim PTX: 52 (potential) branch divergence @  PC=0x2018 (_1.ptx:1365) @%p39 bra $Lt_10_56322;
GPGPU-Sim PTX:    immediate post dominator      @  PC=0x2038 (_1.ptx:1372) mov.f32 %f268, %f284;
GPGPU-Sim PTX: 53 (potential) branch divergence @  PC=0x2158 (_1.ptx:1419) @%p40 bra $L_10_42242;
GPGPU-Sim PTX:    immediate post dominator      @  PC=0x2170 (_1.ptx:1424) sub.s32 %r86, %r24, 1;
GPGPU-Sim PTX: 54 (potential) branch divergence @  PC=0x2168 (_1.ptx:1421) @%p41 bra $L_10_41474;
GPGPU-Sim PTX:    immediate post dominator      @  PC=0x2170 (_1.ptx:1424) sub.s32 %r86, %r24, 1;
GPGPU-Sim PTX: 55 (potential) branch divergence @  PC=0x2190 (_1.ptx:1428) @%p42 bra $Lt_10_56834;
GPGPU-Sim PTX:    immediate post dominator      @  PC=0x2288 (_1.ptx:1464) ld.global.u32 %r92, [%rd4+0];
GPGPU-Sim PTX: 56 (potential) branch divergence @  PC=0x2280 (_1.ptx:1461) @%p43 bra $Lt_10_57346;
GPGPU-Sim PTX:    immediate post dominator      @  PC=0x2288 (_1.ptx:1464) ld.global.u32 %r92, [%rd4+0];
GPGPU-Sim PTX: ... end of reconvergence points for _Z6renderPjP4Nodejjff
GPGPU-Sim PTX: ... done pre-decoding instructions for '_Z6renderPjP4Nodejjff'.
GPGPU-Sim PTX: instruction assembly for function '_ZN4dim3C1Ejjj'...   done.
GPGPU-Sim PTX: finding reconvergence points for '_ZN4dim3C1Ejjj'...
GPGPU-Sim PTX: Finding dominators for '_ZN4dim3C1Ejjj'...
GPGPU-Sim PTX: Finding immediate dominators for '_ZN4dim3C1Ejjj'...
GPGPU-Sim PTX: Finding postdominators for '_ZN4dim3C1Ejjj'...
GPGPU-Sim PTX: Finding immediate postdominators for '_ZN4dim3C1Ejjj'...
GPGPU-Sim PTX: pre-decoding instructions for '_ZN4dim3C1Ejjj'...
GPGPU-Sim PTX: reconvergence points for _ZN4dim3C1Ejjj...
GPGPU-Sim PTX: ... end of reconvergence points for _ZN4dim3C1Ejjj
GPGPU-Sim PTX: ... done pre-decoding instructions for '_ZN4dim3C1Ejjj'.
GPGPU-Sim PTX: finished parsing EMBEDDED .ptx file _1.ptx
Adding _cuobjdump_1.ptx with cubin handle 1
GPGPU-Sim PTX: extracting embedded .ptx to temporary file "_ptx_pC3IqM"
Running: cat _ptx_pC3IqM | sed 's/.version 1.5/.version 1.4/' | sed 's/, texmode_independent//' | sed 's/\(\.extern \.const\[1\] .b8 \w\+\)\[\]/\1\[1\]/' | sed 's/const\[.\]/const\[0\]/g' > _ptx2_vDPcS4
GPGPU-Sim PTX: generating ptxinfo using "$CUDA_INSTALL_PATH/bin/ptxas --gpu-name=sm_20 -v _ptx2_vDPcS4 --output-file  /dev/null 2> _ptx_pC3IqMinfo"
GPGPU-Sim PTX: Kernel '_Z6renderPjP4Nodejjff' : regs=45, lmem=4, smem=0, cmem=180
GPGPU-Sim PTX: removing ptxinfo using "rm -f _ptx_pC3IqM _ptx2_vDPcS4 _ptx_pC3IqMinfo"
GPGPU-Sim PTX: loading globals with explicit initializers... 
GPGPU-Sim PTX: finished loading globals (0 bytes total).
GPGPU-Sim PTX: loading constants with explicit initializers...  done.
GPGPU-Sim PTX: __cudaRegisterVar: hostVar = 0x62fda0; deviceAddress = MView; deviceName = MView
GPGPU-Sim PTX: __cudaRegisterVar: Registering const memory space of 48 bytes
GPGPU-Sim PTX registering constant MView (48 bytes) to name mapping
GPGPU-Sim PTX: __cudaRegisterVar: hostVar = 0x62fde0; deviceAddress = cnode; deviceName = cnode
GPGPU-Sim PTX: __cudaRegisterVar: Registering const memory space of 160 bytes
GPGPU-Sim PTX registering constant cnode (160 bytes) to name mapping
GPGPU-Sim PTX: cudaMemcpyToSymbol: symbol = 0x62fde0
GPGPU-Sim PTX: starting gpgpu_ptx_sim_memcpy_symbol with hostVar 0x0x62fde0
GPGPU-Sim PTX: gpgpu_ptx_sim_memcpy_symbol: Found PTX symbol w/ hostVar=0x62fde0
GPGPU-Sim PTX: gpgpu_ptx_sim_memcpy_symbol: copying const memory 160 bytes  to  symbol cnode+0 @0x100 ...
GPGPU-Sim PTX: cudaMemcpyToSymbol: symbol = 0x62fda0
GPGPU-Sim PTX: starting gpgpu_ptx_sim_memcpy_symbol with hostVar 0x0x62fda0
GPGPU-Sim PTX: gpgpu_ptx_sim_memcpy_symbol: Found PTX symbol w/ hostVar=0x62fda0
GPGPU-Sim PTX: gpgpu_ptx_sim_memcpy_symbol: copying const memory 48 bytes  to  symbol MView+0 @0x200 ...

GPGPU-Sim PTX: cudaLaunch for 0x0x40ce13 (mode=performance simulation) on stream 0
GPGPU-Sim PTX: pushing kernel '_Z6renderPjP4Nodejjff' to stream 0, gridDim= (16,32,1) blockDim = (16,8,1) 
kernel '_Z6renderPjP4Nodejjff' transfer to GPU hardware scheduler
GPGPU-Sim uArch: Shader 1 bind to kernel 1 '_Z6renderPjP4Nodejjff'
GPGPU-Sim uArch: CTA/core = 5, limited by: regs
GPGPU-Sim uArch: core:  1, cta: 0 initialized @(1,0)
GPGPU-Sim uArch: Shader 2 bind to kernel 1 '_Z6renderPjP4Nodejjff'
GPGPU-Sim uArch: core:  2, cta: 0 initialized @(1,0)
GPGPU-Sim uArch: Shader 3 bind to kernel 1 '_Z6renderPjP4Nodejjff'
GPGPU-Sim uArch: core:  3, cta: 0 initialized @(1,0)
GPGPU-Sim uArch: Shader 4 bind to kernel 1 '_Z6renderPjP4Nodejjff'
GPGPU-Sim uArch: core:  4, cta: 0 initialized @(1,0)
GPGPU-Sim uArch: Shader 5 bind to kernel 1 '_Z6renderPjP4Nodejjff'
GPGPU-Sim uArch: core:  5, cta: 0 initialized @(1,0)
GPGPU-Sim uArch: Shader 6 bind to kernel 1 '_Z6renderPjP4Nodejjff'
GPGPU-Sim uArch: core:  6, cta: 0 initialized @(1,0)
GPGPU-Sim uArch: Shader 7 bind to kernel 1 '_Z6renderPjP4Nodejjff'
GPGPU-Sim uArch: core:  7, cta: 0 initialized @(1,0)
GPGPU-Sim uArch: Shader 8 bind to kernel 1 '_Z6renderPjP4Nodejjff'
GPGPU-Sim uArch: core:  8, cta: 0 initialized @(1,0)
GPGPU-Sim uArch: Shader 9 bind to kernel 1 '_Z6renderPjP4Nodejjff'
GPGPU-Sim uArch: core:  9, cta: 0 initialized @(1,0)
GPGPU-Sim uArch: Shader 10 bind to kernel 1 '_Z6renderPjP4Nodejjff'
GPGPU-Sim uArch: core: 10, cta: 0 initialized @(1,0)
GPGPU-Sim uArch: Shader 11 bind to kernel 1 '_Z6renderPjP4Nodejjff'
GPGPU-Sim uArch: core: 11, cta: 0 initialized @(1,0)
GPGPU-Sim uArch: Shader 12 bind to kernel 1 '_Z6renderPjP4Nodejjff'
GPGPU-Sim uArch: core: 12, cta: 0 initialized @(1,0)
GPGPU-Sim uArch: Shader 13 bind to kernel 1 '_Z6renderPjP4Nodejjff'
GPGPU-Sim uArch: core: 13, cta: 0 initialized @(1,0)
GPGPU-Sim uArch: Shader 14 bind to kernel 1 '_Z6renderPjP4Nodejjff'
GPGPU-Sim uArch: core: 14, cta: 0 initialized @(1,0)
GPGPU-Sim uArch: Shader 0 bind to kernel 1 '_Z6renderPjP4Nodejjff'
GPGPU-Sim uArch: core:  0, cta: 0 initialized @(1,0)
GPGPU-Sim uArch: core:  1, cta: 1 initialized @(2,0)
GPGPU-Sim uArch: core:  2, cta: 1 initialized @(2,0)
GPGPU-Sim uArch: core:  3, cta: 1 initialized @(2,0)
GPGPU-Sim uArch: core:  4, cta: 1 initialized @(2,0)
GPGPU-Sim uArch: core:  5, cta: 1 initialized @(2,0)
GPGPU-Sim uArch: core:  6, cta: 1 initialized @(2,0)
GPGPU-Sim uArch: core:  7, cta: 1 initialized @(2,0)
GPGPU-Sim uArch: core:  8, cta: 1 initialized @(2,0)
GPGPU-Sim uArch: core:  9, cta: 1 initialized @(2,0)
GPGPU-Sim uArch: core: 10, cta: 1 initialized @(2,0)
GPGPU-Sim uArch: core: 11, cta: 1 initialized @(2,0)
GPGPU-Sim uArch: core: 12, cta: 1 initialized @(2,0)
GPGPU-Sim uArch: core: 13, cta: 1 initialized @(2,0)
GPGPU-Sim uArch: core: 14, cta: 1 initialized @(2,0)
GPGPU-Sim uArch: core:  0, cta: 1 initialized @(2,0)
GPGPU-Sim uArch: core:  1, cta: 2 initialized @(3,0)
GPGPU-Sim uArch: core:  2, cta: 2 initialized @(3,0)
GPGPU-Sim uArch: core:  3, cta: 2 initialized @(3,0)
GPGPU-Sim uArch: core:  4, cta: 2 initialized @(3,0)
GPGPU-Sim uArch: core:  5, cta: 2 initialized @(3,0)
GPGPU-Sim uArch: core:  6, cta: 2 initialized @(3,0)
GPGPU-Sim uArch: core:  7, cta: 2 initialized @(3,0)
GPGPU-Sim uArch: core:  8, cta: 2 initialized @(3,0)
GPGPU-Sim uArch: core:  9, cta: 2 initialized @(3,0)
GPGPU-Sim uArch: core: 10, cta: 2 initialized @(3,0)
GPGPU-Sim uArch: core: 11, cta: 2 initialized @(3,0)
GPGPU-Sim uArch: core: 12, cta: 2 initialized @(3,0)
GPGPU-Sim uArch: core: 13, cta: 2 initialized @(3,0)
GPGPU-Sim uArch: core: 14, cta: 2 initialized @(3,0)
GPGPU-Sim uArch: core:  0, cta: 2 initialized @(3,0)
GPGPU-Sim uArch: core:  1, cta: 3 initialized @(4,0)
GPGPU-Sim uArch: core:  2, cta: 3 initialized @(4,0)
GPGPU-Sim uArch: core:  3, cta: 3 initialized @(4,0)
GPGPU-Sim uArch: core:  4, cta: 3 initialized @(4,0)
GPGPU-Sim uArch: core:  5, cta: 3 initialized @(4,0)
GPGPU-Sim uArch: core:  6, cta: 3 initialized @(4,0)
GPGPU-Sim uArch: core:  7, cta: 3 initialized @(4,0)
GPGPU-Sim uArch: core:  8, cta: 3 initialized @(4,0)
GPGPU-Sim uArch: core:  9, cta: 3 initialized @(4,0)
GPGPU-Sim uArch: core: 10, cta: 3 initialized @(4,0)
GPGPU-Sim uArch: core: 11, cta: 3 initialized @(4,0)
GPGPU-Sim uArch: core: 12, cta: 3 initialized @(4,0)
GPGPU-Sim uArch: core: 13, cta: 3 initialized @(4,0)
GPGPU-Sim uArch: core: 14, cta: 3 initialized @(4,0)
GPGPU-Sim uArch: core:  0, cta: 3 initialized @(4,0)
GPGPU-Sim uArch: core:  1, cta: 4 initialized @(5,0)
GPGPU-Sim uArch: core:  2, cta: 4 initialized @(5,0)
GPGPU-Sim uArch: core:  3, cta: 4 initialized @(5,0)
GPGPU-Sim uArch: core:  4, cta: 4 initialized @(5,0)
GPGPU-Sim uArch: core:  5, cta: 4 initialized @(5,0)
GPGPU-Sim uArch: core:  6, cta: 4 initialized @(5,0)
GPGPU-Sim uArch: core:  7, cta: 4 initialized @(5,0)
GPGPU-Sim uArch: core:  8, cta: 4 initialized @(5,0)
GPGPU-Sim uArch: core:  9, cta: 4 initialized @(5,0)
GPGPU-Sim uArch: core: 10, cta: 4 initialized @(5,0)
GPGPU-Sim uArch: core: 11, cta: 4 initialized @(5,0)
GPGPU-Sim uArch: core: 12, cta: 4 initialized @(5,0)
GPGPU-Sim uArch: core: 13, cta: 4 initialized @(5,0)
GPGPU-Sim uArch: core: 14, cta: 4 initialized @(5,0)
GPGPU-Sim uArch: core:  0, cta: 4 initialized @(5,0)
GPGPU-Sim uArch: cycles simulated: 500  inst.: 36032 (ipc=72.1) sim_rate=36032 (inst/sec) elapsed = 0:0:00:01 / Wed Mar  2 01:16:44 2016
GPGPU-Sim PTX: 100000 instructions simulated : ctaid=(1,1,0) tid=(15,1,0)
GPGPU-Sim uArch: cycles simulated: 2500  inst.: 114784 (ipc=45.9) sim_rate=57392 (inst/sec) elapsed = 0:0:00:02 / Wed Mar  2 01:16:45 2016
GPGPU-Sim PTX: 200000 instructions simulated : ctaid=(6,2,0) tid=(15,5,0)
GPGPU-Sim PTX: 300000 instructions simulated : ctaid=(5,0,0) tid=(15,7,0)
GPGPU-Sim uArch: cycles simulated: 5000  inst.: 333024 (ipc=66.6) sim_rate=111008 (inst/sec) elapsed = 0:0:00:03 / Wed Mar  2 01:16:46 2016
GPGPU-Sim PTX: 400000 instructions simulated : ctaid=(13,0,0) tid=(15,7,0)
GPGPU-Sim PTX: 500000 instructions simulated : ctaid=(1,0,0) tid=(15,7,0)
GPGPU-Sim PTX: 600000 instructions simulated : ctaid=(8,1,0) tid=(15,7,0)
GPGPU-Sim uArch: cycles simulated: 6500  inst.: 625120 (ipc=96.2) sim_rate=156280 (inst/sec) elapsed = 0:0:00:04 / Wed Mar  2 01:16:47 2016
GPGPU-Sim PTX: 700000 instructions simulated : ctaid=(13,0,0) tid=(15,1,0)
GPGPU-Sim PTX: 800000 instructions simulated : ctaid=(5,2,0) tid=(15,7,0)
GPGPU-Sim PTX: 900000 instructions simulated : ctaid=(2,3,0) tid=(15,3,0)
GPGPU-Sim PTX: 1000000 instructions simulated : ctaid=(7,1,0) tid=(15,7,0)
GPGPU-Sim uArch: cycles simulated: 8000  inst.: 1011872 (ipc=126.5) sim_rate=202374 (inst/sec) elapsed = 0:0:00:05 / Wed Mar  2 01:16:48 2016
GPGPU-Sim PTX: 1100000 instructions simulated : ctaid=(1,4,0) tid=(15,7,0)
GPGPU-Sim PTX: 1200000 instructions simulated : ctaid=(9,2,0) tid=(15,7,0)
GPGPU-Sim PTX: 1300000 instructions simulated : ctaid=(7,0,0) tid=(15,5,0)
GPGPU-Sim PTX: 1400000 instructions simulated : ctaid=(3,1,0) tid=(15,5,0)
GPGPU-Sim PTX: 1500000 instructions simulated : ctaid=(13,2,0) tid=(15,1,0)
GPGPU-Sim uArch: cycles simulated: 9500  inst.: 1560512 (ipc=164.3) sim_rate=260085 (inst/sec) elapsed = 0:0:00:06 / Wed Mar  2 01:16:49 2016
GPGPU-Sim PTX: 1600000 instructions simulated : ctaid=(5,0,0) tid=(15,1,0)
GPGPU-Sim PTX: 1700000 instructions simulated : ctaid=(13,0,0) tid=(15,5,0)
GPGPU-Sim PTX: 1800000 instructions simulated : ctaid=(2,1,0) tid=(15,3,0)
GPGPU-Sim PTX: 1900000 instructions simulated : ctaid=(2,0,0) tid=(15,3,0)
GPGPU-Sim PTX: 2000000 instructions simulated : ctaid=(15,2,0) tid=(15,1,0)
GPGPU-Sim PTX: 2100000 instructions simulated : ctaid=(13,1,0) tid=(15,7,0)
GPGPU-Sim PTX: 2200000 instructions simulated : ctaid=(11,3,0) tid=(15,7,0)
GPGPU-Sim uArch: cycles simulated: 10500  inst.: 2251104 (ipc=214.4) sim_rate=321586 (inst/sec) elapsed = 0:0:00:07 / Wed Mar  2 01:16:50 2016
GPGPU-Sim PTX: 2300000 instructions simulated : ctaid=(3,0,0) tid=(15,5,0)
GPGPU-Sim PTX: 2400000 instructions simulated : ctaid=(2,2,0) tid=(15,5,0)
GPGPU-Sim PTX: 2500000 instructions simulated : ctaid=(3,1,0) tid=(15,3,0)
GPGPU-Sim PTX: 2600000 instructions simulated : ctaid=(1,2,0) tid=(15,7,0)
GPGPU-Sim PTX: 2700000 instructions simulated : ctaid=(12,3,0) tid=(15,3,0)
GPGPU-Sim PTX: 2800000 instructions simulated : ctaid=(15,0,0) tid=(15,7,0)
GPGPU-Sim PTX: 2900000 instructions simulated : ctaid=(1,0,0) tid=(15,3,0)
GPGPU-Sim PTX: 3000000 instructions simulated : ctaid=(15,3,0) tid=(15,1,0)
GPGPU-Sim uArch: cycles simulated: 11500  inst.: 2966816 (ipc=258.0) sim_rate=370852 (inst/sec) elapsed = 0:0:00:08 / Wed Mar  2 01:16:51 2016
GPGPU-Sim PTX: 3100000 instructions simulated : ctaid=(6,3,0) tid=(15,5,0)
GPGPU-Sim PTX: 3200000 instructions simulated : ctaid=(3,0,0) tid=(15,5,0)
GPGPU-Sim PTX: 3300000 instructions simulated : ctaid=(3,4,0) tid=(15,7,0)
GPGPU-Sim PTX: 3400000 instructions simulated : ctaid=(11,3,0) tid=(15,1,0)
GPGPU-Sim PTX: 3500000 instructions simulated : ctaid=(13,3,0) tid=(15,1,0)
GPGPU-Sim uArch: cycles simulated: 12500  inst.: 3440800 (ipc=275.3) sim_rate=382311 (inst/sec) elapsed = 0:0:00:09 / Wed Mar  2 01:16:52 2016
GPGPU-Sim PTX: 3600000 instructions simulated : ctaid=(11,1,0) tid=(15,1,0)
GPGPU-Sim PTX: 3700000 instructions simulated : ctaid=(4,1,0) tid=(15,1,0)
GPGPU-Sim PTX: 3800000 instructions simulated : ctaid=(8,3,0) tid=(15,3,0)
GPGPU-Sim PTX: 3900000 instructions simulated : ctaid=(14,2,0) tid=(15,3,0)
GPGPU-Sim PTX: 4000000 instructions simulated : ctaid=(9,3,0) tid=(15,7,0)
GPGPU-Sim PTX: 4100000 instructions simulated : ctaid=(11,2,0) tid=(15,3,0)
GPGPU-Sim uArch: cycles simulated: 14000  inst.: 3999104 (ipc=285.7) sim_rate=399910 (inst/sec) elapsed = 0:0:00:10 / Wed Mar  2 01:16:53 2016
GPGPU-Sim PTX: 4200000 instructions simulated : ctaid=(10,1,0) tid=(15,5,0)
GPGPU-Sim PTX: 4300000 instructions simulated : ctaid=(15,1,0) tid=(15,7,0)
GPGPU-Sim PTX: 4400000 instructions simulated : ctaid=(15,1,0) tid=(15,5,0)
GPGPU-Sim PTX: 4500000 instructions simulated : ctaid=(4,4,0) tid=(15,3,0)
GPGPU-Sim PTX: 4600000 instructions simulated : ctaid=(12,0,0) tid=(2,2,0)
GPGPU-Sim uArch: cycles simulated: 15500  inst.: 4496900 (ipc=290.1) sim_rate=408809 (inst/sec) elapsed = 0:0:00:11 / Wed Mar  2 01:16:54 2016
GPGPU-Sim PTX: 4700000 instructions simulated : ctaid=(6,1,0) tid=(13,4,0)
GPGPU-Sim PTX: 4800000 instructions simulated : ctaid=(14,0,0) tid=(15,6,0)
GPGPU-Sim PTX: 4900000 instructions simulated : ctaid=(7,3,0) tid=(15,2,0)
GPGPU-Sim PTX: 5000000 instructions simulated : ctaid=(8,4,0) tid=(15,4,0)
GPGPU-Sim PTX: 5100000 instructions simulated : ctaid=(9,2,0) tid=(15,0,0)
GPGPU-Sim PTX: 5200000 instructions simulated : ctaid=(6,1,0) tid=(15,6,0)
GPGPU-Sim PTX: 5300000 instructions simulated : ctaid=(3,3,0) tid=(15,4,0)
GPGPU-Sim PTX: 5400000 instructions simulated : ctaid=(0,0,0) tid=(8,0,0)
GPGPU-Sim uArch: cycles simulated: 16500  inst.: 5269818 (ipc=319.4) sim_rate=439151 (inst/sec) elapsed = 0:0:00:12 / Wed Mar  2 01:16:55 2016
GPGPU-Sim PTX: 5500000 instructions simulated : ctaid=(9,0,0) tid=(7,7,0)
GPGPU-Sim PTX: 5600000 instructions simulated : ctaid=(10,1,0) tid=(9,4,0)
GPGPU-Sim PTX: 5700000 instructions simulated : ctaid=(3,2,0) tid=(1,5,0)
GPGPU-Sim PTX: 5800000 instructions simulated : ctaid=(5,4,0) tid=(15,0,0)
GPGPU-Sim PTX: 5900000 instructions simulated : ctaid=(4,0,0) tid=(13,6,0)
GPGPU-Sim PTX: 6000000 instructions simulated : ctaid=(9,4,0) tid=(11,7,0)
GPGPU-Sim uArch: cycles simulated: 17500  inst.: 5878500 (ipc=335.9) sim_rate=452192 (inst/sec) elapsed = 0:0:00:13 / Wed Mar  2 01:16:56 2016
GPGPU-Sim PTX: 6100000 instructions simulated : ctaid=(10,4,0) tid=(11,3,0)
GPGPU-Sim PTX: 6200000 instructions simulated : ctaid=(2,3,0) tid=(11,7,0)
GPGPU-Sim PTX: 6300000 instructions simulated : ctaid=(8,0,0) tid=(11,7,0)
GPGPU-Sim PTX: 6400000 instructions simulated : ctaid=(11,1,0) tid=(11,5,0)
GPGPU-Sim PTX: 6500000 instructions simulated : ctaid=(0,3,0) tid=(5,2,0)
GPGPU-Sim uArch: cycles simulated: 19500  inst.: 6349860 (ipc=325.6) sim_rate=453561 (inst/sec) elapsed = 0:0:00:14 / Wed Mar  2 01:16:57 2016
GPGPU-Sim PTX: 6600000 instructions simulated : ctaid=(2,3,0) tid=(11,3,0)
GPGPU-Sim PTX: 6700000 instructions simulated : ctaid=(9,0,0) tid=(11,1,0)
GPGPU-Sim PTX: 6800000 instructions simulated : ctaid=(14,1,0) tid=(11,7,0)
GPGPU-Sim PTX: 6900000 instructions simulated : ctaid=(9,2,0) tid=(11,5,0)
GPGPU-Sim PTX: 7000000 instructions simulated : ctaid=(10,0,0) tid=(11,5,0)
GPGPU-Sim PTX: 7100000 instructions simulated : ctaid=(11,3,0) tid=(11,5,0)
GPGPU-Sim uArch: cycles simulated: 21000  inst.: 6917444 (ipc=329.4) sim_rate=461162 (inst/sec) elapsed = 0:0:00:15 / Wed Mar  2 01:16:58 2016
GPGPU-Sim PTX: 7200000 instructions simulated : ctaid=(12,1,0) tid=(11,7,0)
GPGPU-Sim PTX: 7300000 instructions simulated : ctaid=(15,2,0) tid=(11,3,0)
GPGPU-Sim PTX: 7400000 instructions simulated : ctaid=(4,4,0) tid=(11,7,0)
GPGPU-Sim uArch: cycles simulated: 22000  inst.: 7228036 (ipc=328.5) sim_rate=451752 (inst/sec) elapsed = 0:0:00:16 / Wed Mar  2 01:16:59 2016
GPGPU-Sim PTX: 7500000 instructions simulated : ctaid=(4,1,0) tid=(11,1,0)
GPGPU-Sim PTX: 7600000 instructions simulated : ctaid=(10,3,0) tid=(11,1,0)
GPGPU-Sim PTX: 7700000 instructions simulated : ctaid=(15,2,0) tid=(11,5,0)
GPGPU-Sim PTX: 7800000 instructions simulated : ctaid=(7,2,0) tid=(11,7,0)
GPGPU-Sim PTX: 7900000 instructions simulated : ctaid=(0,1,0) tid=(11,3,0)
GPGPU-Sim uArch: cycles simulated: 23500  inst.: 7768996 (ipc=330.6) sim_rate=456999 (inst/sec) elapsed = 0:0:00:17 / Wed Mar  2 01:17:00 2016
GPGPU-Sim PTX: 8000000 instructions simulated : ctaid=(12,3,0) tid=(11,1,0)
GPGPU-Sim PTX: 8100000 instructions simulated : ctaid=(0,1,0) tid=(11,5,0)
GPGPU-Sim PTX: 8200000 instructions simulated : ctaid=(1,1,0) tid=(11,7,0)
GPGPU-Sim PTX: 8300000 instructions simulated : ctaid=(0,4,0) tid=(11,1,0)
GPGPU-Sim PTX: 8400000 instructions simulated : ctaid=(3,4,0) tid=(11,3,0)
GPGPU-Sim PTX: 8500000 instructions simulated : ctaid=(8,3,0) tid=(11,7,0)
GPGPU-Sim PTX: 8600000 instructions simulated : ctaid=(7,0,0) tid=(11,1,0)
GPGPU-Sim PTX: 8700000 instructions simulated : ctaid=(9,4,0) tid=(11,5,0)
GPGPU-Sim uArch: cycles simulated: 25000  inst.: 8488522 (ipc=339.5) sim_rate=471584 (inst/sec) elapsed = 0:0:00:18 / Wed Mar  2 01:17:01 2016
GPGPU-Sim PTX: 8800000 instructions simulated : ctaid=(12,0,0) tid=(15,4,0)
GPGPU-Sim PTX: 8900000 instructions simulated : ctaid=(7,2,0) tid=(11,1,0)
GPGPU-Sim PTX: 9000000 instructions simulated : ctaid=(7,4,0) tid=(10,1,0)
GPGPU-Sim PTX: 9100000 instructions simulated : ctaid=(4,2,0) tid=(10,4,0)
GPGPU-Sim PTX: 9200000 instructions simulated : ctaid=(0,3,0) tid=(4,3,0)
GPGPU-Sim PTX: 9300000 instructions simulated : ctaid=(1,1,0) tid=(3,7,0)
GPGPU-Sim PTX: 9400000 instructions simulated : ctaid=(5,3,0) tid=(3,5,0)
GPGPU-Sim PTX: 9500000 instructions simulated : ctaid=(10,1,0) tid=(6,6,0)
GPGPU-Sim uArch: cycles simulated: 26000  inst.: 9290328 (ipc=357.3) sim_rate=488964 (inst/sec) elapsed = 0:0:00:19 / Wed Mar  2 01:17:02 2016
GPGPU-Sim PTX: 9600000 instructions simulated : ctaid=(2,2,0) tid=(9,0,0)
GPGPU-Sim PTX: 9700000 instructions simulated : ctaid=(4,0,0) tid=(6,3,0)
GPGPU-Sim PTX: 9800000 instructions simulated : ctaid=(5,0,0) tid=(9,1,0)
GPGPU-Sim PTX: 9900000 instructions simulated : ctaid=(7,4,0) tid=(6,7,0)
GPGPU-Sim PTX: 10000000 instructions simulated : ctaid=(9,4,0) tid=(8,3,0)
GPGPU-Sim uArch: cycles simulated: 27000  inst.: 9818543 (ipc=363.6) sim_rate=490927 (inst/sec) elapsed = 0:0:00:20 / Wed Mar  2 01:17:03 2016
GPGPU-Sim PTX: 10100000 instructions simulated : ctaid=(6,4,0) tid=(6,2,0)
GPGPU-Sim PTX: 10200000 instructions simulated : ctaid=(1,0,0) tid=(15,2,0)
GPGPU-Sim PTX: 10300000 instructions simulated : ctaid=(4,1,0) tid=(9,4,0)
GPGPU-Sim PTX: 10400000 instructions simulated : ctaid=(6,3,0) tid=(2,5,0)
GPGPU-Sim uArch: Shader 6 finished CTA #2 (28340,0), 4 CTAs running
GPGPU-Sim uArch: core:  6, cta: 2 initialized @(28341,0)
GPGPU-Sim uArch: Shader 8 finished CTA #2 (28345,0), 4 CTAs running
GPGPU-Sim uArch: core:  8, cta: 2 initialized @(28346,0)
GPGPU-Sim uArch: Shader 14 finished CTA #0 (28351,0), 4 CTAs running
GPGPU-Sim uArch: core: 14, cta: 0 initialized @(28352,0)
GPGPU-Sim uArch: Shader 2 finished CTA #1 (28355,0), 4 CTAs running
GPGPU-Sim uArch: core:  2, cta: 1 initialized @(28356,0)
GPGPU-Sim uArch: Shader 8 finished CTA #3 (28361,0), 4 CTAs running
GPGPU-Sim uArch: core:  8, cta: 3 initialized @(28362,0)
GPGPU-Sim uArch: Shader 6 finished CTA #3 (28368,0), 4 CTAs running
GPGPU-Sim uArch: core:  6, cta: 3 initialized @(28369,0)
GPGPU-Sim uArch: Shader 1 finished CTA #1 (28377,0), 4 CTAs running
GPGPU-Sim uArch: Shader 3 finished CTA #0 (28377,0), 4 CTAs running
GPGPU-Sim uArch: core:  1, cta: 1 initialized @(28378,0)
GPGPU-Sim uArch: core:  3, cta: 0 initialized @(28378,0)
GPGPU-Sim uArch: Shader 6 finished CTA #4 (28383,0), 4 CTAs running
GPGPU-Sim uArch: core:  6, cta: 4 initialized @(28384,0)
GPGPU-Sim uArch: Shader 0 finished CTA #0 (28391,0), 4 CTAs running
GPGPU-Sim uArch: Shader 8 finished CTA #4 (28391,0), 4 CTAs running
GPGPU-Sim uArch: core:  8, cta: 4 initialized @(28392,0)
GPGPU-Sim uArch: core:  0, cta: 0 initialized @(28392,0)
GPGPU-Sim uArch: Shader 2 finished CTA #2 (28407,0), 4 CTAs running
GPGPU-Sim uArch: core:  2, cta: 2 initialized @(28408,0)
GPGPU-Sim uArch: Shader 3 finished CTA #1 (28415,0), 4 CTAs running
GPGPU-Sim uArch: core:  3, cta: 1 initialized @(28416,0)
GPGPU-Sim uArch: Shader 1 finished CTA #0 (28419,0), 4 CTAs running
GPGPU-Sim uArch: Shader 2 finished CTA #0 (28419,0), 4 CTAs running
GPGPU-Sim uArch: core:  1, cta: 0 initialized @(28420,0)
GPGPU-Sim uArch: core:  2, cta: 0 initialized @(28420,0)
GPGPU-Sim uArch: Shader 4 finished CTA #2 (28423,0), 4 CTAs running
GPGPU-Sim uArch: core:  4, cta: 2 initialized @(28424,0)
GPGPU-Sim uArch: Shader 0 finished CTA #1 (28424,0), 4 CTAs running
GPGPU-Sim uArch: core:  0, cta: 1 initialized @(28425,0)
GPGPU-Sim uArch: Shader 9 finished CTA #4 (28425,0), 4 CTAs running
GPGPU-Sim uArch: core:  9, cta: 4 initialized @(28426,0)
GPGPU-Sim uArch: Shader 2 finished CTA #4 (28427,0), 4 CTAs running
GPGPU-Sim uArch: core:  2, cta: 4 initialized @(28428,0)
GPGPU-Sim uArch: Shader 1 finished CTA #2 (28437,0), 4 CTAs running
GPGPU-Sim uArch: core:  1, cta: 2 initialized @(28438,0)
GPGPU-Sim uArch: Shader 2 finished CTA #3 (28439,0), 4 CTAs running
GPGPU-Sim uArch: core:  2, cta: 3 initialized @(28440,0)
GPGPU-Sim uArch: Shader 0 finished CTA #2 (28447,0), 4 CTAs running
GPGPU-Sim uArch: core:  0, cta: 2 initialized @(28448,0)
GPGPU-Sim uArch: Shader 9 finished CTA #3 (28451,0), 4 CTAs running
GPGPU-Sim uArch: core:  9, cta: 3 initialized @(28452,0)
GPGPU-Sim uArch: Shader 1 finished CTA #4 (28455,0), 4 CTAs running
GPGPU-Sim uArch: core:  1, cta: 4 initialized @(28456,0)
GPGPU-Sim uArch: Shader 0 finished CTA #3 (28457,0), 4 CTAs running
GPGPU-Sim uArch: core:  0, cta: 3 initialized @(28458,0)
GPGPU-Sim uArch: Shader 1 finished CTA #3 (28467,0), 4 CTAs running
GPGPU-Sim uArch: Shader 4 finished CTA #1 (28467,0), 4 CTAs running
GPGPU-Sim uArch: core:  1, cta: 3 initialized @(28468,0)
GPGPU-Sim uArch: core:  4, cta: 1 initialized @(28468,0)
GPGPU-Sim uArch: Shader 5 finished CTA #2 (28471,0), 4 CTAs running
GPGPU-Sim uArch: core:  5, cta: 2 initialized @(28472,0)
GPGPU-Sim uArch: Shader 3 finished CTA #2 (28477,0), 4 CTAs running
GPGPU-Sim uArch: core:  3, cta: 2 initialized @(28478,0)
GPGPU-Sim uArch: Shader 0 finished CTA #4 (28479,0), 4 CTAs running
GPGPU-Sim uArch: core:  0, cta: 4 initialized @(28480,0)
GPGPU-Sim uArch: Shader 4 finished CTA #3 (28485,0), 4 CTAs running
GPGPU-Sim uArch: core:  4, cta: 3 initialized @(28486,0)
GPGPU-Sim uArch: Shader 5 finished CTA #3 (28490,0), 4 CTAs running
GPGPU-Sim uArch: core:  5, cta: 3 initialized @(28491,0)
GPGPU-Sim uArch: Shader 3 finished CTA #4 (28492,0), 4 CTAs running
GPGPU-Sim uArch: core:  3, cta: 4 initialized @(28493,0)
GPGPU-Sim uArch: Shader 7 finished CTA #3 (28495,0), 4 CTAs running
GPGPU-Sim uArch: core:  7, cta: 3 initialized @(28496,0)
GPGPU-Sim uArch: cycles simulated: 28500  inst.: 10193497 (ipc=357.7) sim_rate=485404 (inst/sec) elapsed = 0:0:00:21 / Wed Mar  2 01:17:04 2016
GPGPU-Sim uArch: Shader 4 finished CTA #4 (28503,0), 4 CTAs running
GPGPU-Sim uArch: core:  4, cta: 4 initialized @(28504,0)
GPGPU-Sim uArch: Shader 5 finished CTA #4 (28504,0), 4 CTAs running
GPGPU-Sim uArch: core:  5, cta: 4 initialized @(28505,0)
GPGPU-Sim uArch: Shader 7 finished CTA #4 (28598,0), 4 CTAs running
GPGPU-Sim uArch: core:  7, cta: 4 initialized @(28599,0)
GPGPU-Sim PTX: 10500000 instructions simulated : ctaid=(6,5,0) tid=(13,3,0)
GPGPU-Sim uArch: Shader 3 finished CTA #3 (28658,0), 4 CTAs running
GPGPU-Sim uArch: core:  3, cta: 3 initialized @(28659,0)
GPGPU-Sim uArch: Shader 10 finished CTA #4 (28798,0), 4 CTAs running
GPGPU-Sim uArch: core: 10, cta: 4 initialized @(28799,0)
GPGPU-Sim PTX: 10600000 instructions simulated : ctaid=(15,6,0) tid=(5,5,0)
GPGPU-Sim PTX: 10700000 instructions simulated : ctaid=(8,2,0) tid=(10,2,0)
GPGPU-Sim uArch: cycles simulated: 29500  inst.: 10486244 (ipc=355.5) sim_rate=476647 (inst/sec) elapsed = 0:0:00:22 / Wed Mar  2 01:17:05 2016
GPGPU-Sim PTX: 10800000 instructions simulated : ctaid=(9,3,0) tid=(9,4,0)
GPGPU-Sim PTX: 10900000 instructions simulated : ctaid=(5,1,0) tid=(7,3,0)
GPGPU-Sim PTX: 11000000 instructions simulated : ctaid=(7,2,0) tid=(13,0,0)
GPGPU-Sim PTX: 11100000 instructions simulated : ctaid=(9,1,0) tid=(8,3,0)
GPGPU-Sim PTX: 11200000 instructions simulated : ctaid=(7,5,0) tid=(10,3,0)
GPGPU-Sim uArch: cycles simulated: 30500  inst.: 10913154 (ipc=357.8) sim_rate=474484 (inst/sec) elapsed = 0:0:00:23 / Wed Mar  2 01:17:06 2016
GPGPU-Sim PTX: 11300000 instructions simulated : ctaid=(8,3,0) tid=(4,6,0)
GPGPU-Sim PTX: 11400000 instructions simulated : ctaid=(3,5,0) tid=(0,2,0)
GPGPU-Sim PTX: 11500000 instructions simulated : ctaid=(9,3,0) tid=(11,3,0)
GPGPU-Sim PTX: 11600000 instructions simulated : ctaid=(6,3,0) tid=(13,1,0)
GPGPU-Sim PTX: 11700000 instructions simulated : ctaid=(13,4,0) tid=(10,1,0)
GPGPU-Sim uArch: cycles simulated: 31500  inst.: 11432809 (ipc=362.9) sim_rate=476367 (inst/sec) elapsed = 0:0:00:24 / Wed Mar  2 01:17:07 2016
GPGPU-Sim PTX: 11800000 instructions simulated : ctaid=(5,0,0) tid=(8,5,0)
GPGPU-Sim PTX: 11900000 instructions simulated : ctaid=(10,5,0) tid=(7,2,0)
GPGPU-Sim PTX: 12000000 instructions simulated : ctaid=(12,5,0) tid=(15,7,0)
GPGPU-Sim uArch: Shader 7 finished CTA #2 (32056,0), 4 CTAs running
GPGPU-Sim uArch: core:  7, cta: 2 initialized @(32057,0)
GPGPU-Sim PTX: 12100000 instructions simulated : ctaid=(10,6,0) tid=(10,5,0)
GPGPU-Sim PTX: 12200000 instructions simulated : ctaid=(11,2,0) tid=(14,0,0)
GPGPU-Sim PTX: 12300000 instructions simulated : ctaid=(15,6,0) tid=(2,3,0)
GPGPU-Sim uArch: cycles simulated: 32500  inst.: 12023133 (ipc=369.9) sim_rate=480925 (inst/sec) elapsed = 0:0:00:25 / Wed Mar  2 01:17:08 2016
GPGPU-Sim PTX: 12400000 instructions simulated : ctaid=(7,6,0) tid=(11,2,0)
GPGPU-Sim PTX: 12500000 instructions simulated : ctaid=(10,6,0) tid=(3,1,0)
GPGPU-Sim uArch: Shader 14 finished CTA #2 (32796,0), 4 CTAs running
GPGPU-Sim uArch: core: 14, cta: 2 initialized @(32797,0)
GPGPU-Sim PTX: 12600000 instructions simulated : ctaid=(1,6,0) tid=(0,6,0)
GPGPU-Sim PTX: 12700000 instructions simulated : ctaid=(0,5,0) tid=(9,3,0)
GPGPU-Sim PTX: 12800000 instructions simulated : ctaid=(7,6,0) tid=(10,0,0)
GPGPU-Sim PTX: 12900000 instructions simulated : ctaid=(0,6,0) tid=(10,1,0)
GPGPU-Sim uArch: cycles simulated: 33500  inst.: 12625321 (ipc=376.9) sim_rate=485589 (inst/sec) elapsed = 0:0:00:26 / Wed Mar  2 01:17:09 2016
GPGPU-Sim PTX: 13000000 instructions simulated : ctaid=(13,5,0) tid=(12,7,0)
GPGPU-Sim PTX: 13100000 instructions simulated : ctaid=(9,5,0) tid=(1,1,0)
GPGPU-Sim PTX: 13200000 instructions simulated : ctaid=(7,6,0) tid=(3,6,0)
GPGPU-Sim PTX: 13300000 instructions simulated : ctaid=(12,6,0) tid=(9,1,0)
GPGPU-Sim PTX: 13400000 instructions simulated : ctaid=(2,6,0) tid=(11,2,0)
GPGPU-Sim PTX: 13500000 instructions simulated : ctaid=(15,5,0) tid=(8,2,0)
GPGPU-Sim uArch: cycles simulated: 34500  inst.: 13171131 (ipc=381.8) sim_rate=487819 (inst/sec) elapsed = 0:0:00:27 / Wed Mar  2 01:17:10 2016
GPGPU-Sim PTX: 13600000 instructions simulated : ctaid=(7,5,0) tid=(2,7,0)
GPGPU-Sim PTX: 13700000 instructions simulated : ctaid=(7,4,0) tid=(11,6,0)
GPGPU-Sim PTX: 13800000 instructions simulated : ctaid=(12,0,0) tid=(3,6,0)
GPGPU-Sim PTX: 13900000 instructions simulated : ctaid=(15,6,0) tid=(2,2,0)
GPGPU-Sim PTX: 14000000 instructions simulated : ctaid=(4,6,0) tid=(12,0,0)
GPGPU-Sim PTX: 14100000 instructions simulated : ctaid=(7,4,0) tid=(11,2,0)
GPGPU-Sim uArch: cycles simulated: 35500  inst.: 13739721 (ipc=387.0) sim_rate=490704 (inst/sec) elapsed = 0:0:00:28 / Wed Mar  2 01:17:11 2016
GPGPU-Sim PTX: 14200000 instructions simulated : ctaid=(15,5,0) tid=(14,1,0)
GPGPU-Sim PTX: 14300000 instructions simulated : ctaid=(6,1,0) tid=(9,7,0)
GPGPU-Sim PTX: 14400000 instructions simulated : ctaid=(14,5,0) tid=(2,7,0)
GPGPU-Sim PTX: 14500000 instructions simulated : ctaid=(11,5,0) tid=(10,5,0)
GPGPU-Sim PTX: 14600000 instructions simulated : ctaid=(5,6,0) tid=(11,4,0)
GPGPU-Sim PTX: 14700000 instructions simulated : ctaid=(8,5,0) tid=(4,1,0)
GPGPU-Sim uArch: cycles simulated: 36500  inst.: 14335708 (ipc=392.8) sim_rate=494334 (inst/sec) elapsed = 0:0:00:29 / Wed Mar  2 01:17:12 2016
GPGPU-Sim PTX: 14800000 instructions simulated : ctaid=(14,4,0) tid=(11,0,0)
GPGPU-Sim PTX: 14900000 instructions simulated : ctaid=(15,5,0) tid=(6,2,0)
GPGPU-Sim PTX: 15000000 instructions simulated : ctaid=(11,5,0) tid=(5,7,0)
GPGPU-Sim PTX: 15100000 instructions simulated : ctaid=(2,5,0) tid=(12,0,0)
GPGPU-Sim PTX: 15200000 instructions simulated : ctaid=(13,5,0) tid=(9,2,0)
GPGPU-Sim PTX: 15300000 instructions simulated : ctaid=(14,5,0) tid=(13,6,0)
GPGPU-Sim uArch: cycles simulated: 37500  inst.: 14911889 (ipc=397.7) sim_rate=497062 (inst/sec) elapsed = 0:0:00:30 / Wed Mar  2 01:17:13 2016
GPGPU-Sim PTX: 15400000 instructions simulated : ctaid=(11,5,0) tid=(10,7,0)
GPGPU-Sim PTX: 15500000 instructions simulated : ctaid=(9,3,0) tid=(2,1,0)
GPGPU-Sim PTX: 15600000 instructions simulated : ctaid=(7,2,0) tid=(8,3,0)
GPGPU-Sim uArch: Shader 14 finished CTA #3 (38082,0), 4 CTAs running
GPGPU-Sim uArch: core: 14, cta: 3 initialized @(38083,0)
GPGPU-Sim PTX: 15700000 instructions simulated : ctaid=(4,6,0) tid=(1,4,0)
GPGPU-Sim PTX: 15800000 instructions simulated : ctaid=(1,7,0) tid=(14,5,0)
GPGPU-Sim uArch: cycles simulated: 38500  inst.: 15401435 (ipc=400.0) sim_rate=496820 (inst/sec) elapsed = 0:0:00:31 / Wed Mar  2 01:17:14 2016
GPGPU-Sim PTX: 15900000 instructions simulated : ctaid=(0,7,0) tid=(2,3,0)
GPGPU-Sim PTX: 16000000 instructions simulated : ctaid=(0,5,0) tid=(0,4,0)
GPGPU-Sim PTX: 16100000 instructions simulated : ctaid=(13,5,0) tid=(0,5,0)
GPGPU-Sim PTX: 16200000 instructions simulated : ctaid=(6,5,0) tid=(7,6,0)
GPGPU-Sim PTX: 16300000 instructions simulated : ctaid=(1,5,0) tid=(14,5,0)
GPGPU-Sim PTX: 16400000 instructions simulated : ctaid=(8,3,0) tid=(9,7,0)
GPGPU-Sim uArch: cycles simulated: 40000  inst.: 16050491 (ipc=401.3) sim_rate=501577 (inst/sec) elapsed = 0:0:00:32 / Wed Mar  2 01:17:15 2016
GPGPU-Sim PTX: 16500000 instructions simulated : ctaid=(1,7,0) tid=(7,0,0)
GPGPU-Sim uArch: Shader 13 finished CTA #2 (40223,0), 4 CTAs running
GPGPU-Sim uArch: core: 13, cta: 2 initialized @(40224,0)
GPGPU-Sim PTX: 16600000 instructions simulated : ctaid=(12,6,0) tid=(0,7,0)
GPGPU-Sim PTX: 16700000 instructions simulated : ctaid=(9,4,0) tid=(2,3,0)
GPGPU-Sim PTX: 16800000 instructions simulated : ctaid=(5,7,0) tid=(2,3,0)
GPGPU-Sim PTX: 16900000 instructions simulated : ctaid=(6,6,0) tid=(1,5,0)
GPGPU-Sim uArch: cycles simulated: 41000  inst.: 16523348 (ipc=403.0) sim_rate=500707 (inst/sec) elapsed = 0:0:00:33 / Wed Mar  2 01:17:16 2016
GPGPU-Sim PTX: 17000000 instructions simulated : ctaid=(5,5,0) tid=(15,0,0)
GPGPU-Sim PTX: 17100000 instructions simulated : ctaid=(5,7,0) tid=(7,1,0)
GPGPU-Sim PTX: 17200000 instructions simulated : ctaid=(0,5,0) tid=(15,4,0)
GPGPU-Sim PTX: 17300000 instructions simulated : ctaid=(7,4,0) tid=(13,1,0)
GPGPU-Sim uArch: Shader 7 finished CTA #3 (41718,0), 4 CTAs running
GPGPU-Sim uArch: core:  7, cta: 3 initialized @(41719,0)
GPGPU-Sim PTX: 17400000 instructions simulated : ctaid=(13,6,0) tid=(11,2,0)
GPGPU-Sim uArch: Shader 7 finished CTA #4 (41859,0), 4 CTAs running
GPGPU-Sim uArch: core:  7, cta: 4 initialized @(41860,0)
GPGPU-Sim uArch: cycles simulated: 42000  inst.: 17004948 (ipc=404.9) sim_rate=500145 (inst/sec) elapsed = 0:0:00:34 / Wed Mar  2 01:17:17 2016
GPGPU-Sim PTX: 17500000 instructions simulated : ctaid=(8,6,0) tid=(14,0,0)
GPGPU-Sim uArch: Shader 5 finished CTA #4 (42213,0), 4 CTAs running
GPGPU-Sim uArch: core:  5, cta: 4 initialized @(42214,0)
GPGPU-Sim uArch: Shader 5 finished CTA #3 (42232,0), 4 CTAs running
GPGPU-Sim uArch: core:  5, cta: 3 initialized @(42233,0)
GPGPU-Sim PTX: 17600000 instructions simulated : ctaid=(9,0,0) tid=(0,6,0)
GPGPU-Sim uArch: Shader 5 finished CTA #1 (42400,0), 4 CTAs running
GPGPU-Sim uArch: core:  5, cta: 1 initialized @(42401,0)
GPGPU-Sim PTX: 17700000 instructions simulated : ctaid=(7,1,0) tid=(3,4,0)
GPGPU-Sim PTX: 17800000 instructions simulated : ctaid=(11,4,0) tid=(7,4,0)
GPGPU-Sim uArch: Shader 14 finished CTA #0 (43019,0), 4 CTAs running
GPGPU-Sim uArch: core: 14, cta: 0 initialized @(43020,0)
GPGPU-Sim PTX: 17900000 instructions simulated : ctaid=(9,1,0) tid=(2,7,0)
GPGPU-Sim uArch: Shader 14 finished CTA #1 (43056,0), 4 CTAs running
GPGPU-Sim uArch: core: 14, cta: 1 initialized @(43057,0)
GPGPU-Sim PTX: 18000000 instructions simulated : ctaid=(13,6,0) tid=(14,4,0)
GPGPU-Sim PTX: 18100000 instructions simulated : ctaid=(0,6,0) tid=(15,6,0)
GPGPU-Sim uArch: cycles simulated: 43500  inst.: 17643436 (ipc=405.6) sim_rate=504098 (inst/sec) elapsed = 0:0:00:35 / Wed Mar  2 01:17:18 2016
GPGPU-Sim PTX: 18200000 instructions simulated : ctaid=(0,5,0) tid=(15,2,0)
GPGPU-Sim uArch: Shader 4 finished CTA #2 (43722,0), 4 CTAs running
GPGPU-Sim uArch: core:  4, cta: 2 initialized @(43723,0)
GPGPU-Sim uArch: Shader 4 finished CTA #1 (43792,0), 4 CTAs running
GPGPU-Sim uArch: core:  4, cta: 1 initialized @(43793,0)
GPGPU-Sim PTX: 18300000 instructions simulated : ctaid=(8,4,0) tid=(9,6,0)
GPGPU-Sim PTX: 18400000 instructions simulated : ctaid=(14,4,0) tid=(7,6,0)
GPGPU-Sim uArch: Shader 4 finished CTA #0 (44024,0), 4 CTAs running
GPGPU-Sim uArch: core:  4, cta: 0 initialized @(44025,0)
GPGPU-Sim PTX: 18500000 instructions simulated : ctaid=(3,6,0) tid=(3,3,0)
GPGPU-Sim uArch: Shader 11 finished CTA #4 (44209,0), 4 CTAs running
GPGPU-Sim uArch: core: 11, cta: 4 initialized @(44210,0)
GPGPU-Sim uArch: Shader 10 finished CTA #4 (44297,0), 4 CTAs running
GPGPU-Sim uArch: core: 10, cta: 4 initialized @(44298,0)
GPGPU-Sim uArch: Shader 9 finished CTA #4 (44395,0), 4 CTAs running
GPGPU-Sim uArch: core:  9, cta: 4 initialized @(44396,0)
GPGPU-Sim PTX: 18600000 instructions simulated : ctaid=(8,5,0) tid=(0,1,0)
GPGPU-Sim uArch: Shader 9 finished CTA #3 (44411,0), 4 CTAs running
GPGPU-Sim uArch: core:  9, cta: 3 initialized @(44412,0)
GPGPU-Sim uArch: Shader 12 finished CTA #3 (44459,0), 4 CTAs running
GPGPU-Sim uArch: Shader 13 finished CTA #0 (44459,0), 4 CTAs running
GPGPU-Sim uArch: core: 12, cta: 3 initialized @(44460,0)
GPGPU-Sim uArch: core: 13, cta: 0 initialized @(44460,0)
GPGPU-Sim uArch: cycles simulated: 44500  inst.: 18145925 (ipc=407.8) sim_rate=504053 (inst/sec) elapsed = 0:0:00:36 / Wed Mar  2 01:17:19 2016
GPGPU-Sim uArch: Shader 10 finished CTA #3 (44520,0), 4 CTAs running
GPGPU-Sim uArch: core: 10, cta: 3 initialized @(44521,0)
GPGPU-Sim uArch: Shader 4 finished CTA #4 (44591,0), 4 CTAs running
GPGPU-Sim uArch: core:  4, cta: 4 initialized @(44592,0)
GPGPU-Sim PTX: 18700000 instructions simulated : ctaid=(5,7,0) tid=(12,6,0)
GPGPU-Sim uArch: Shader 13 finished CTA #1 (44714,0), 4 CTAs running
GPGPU-Sim uArch: core: 13, cta: 1 initialized @(44715,0)
GPGPU-Sim uArch: Shader 13 finished CTA #3 (44740,0), 4 CTAs running
GPGPU-Sim uArch: core: 13, cta: 3 initialized @(44741,0)
GPGPU-Sim PTX: 18800000 instructions simulated : ctaid=(1,8,0) tid=(0,1,0)
GPGPU-Sim uArch: cycles simulated: 45000  inst.: 18383927 (ipc=408.5) sim_rate=496862 (inst/sec) elapsed = 0:0:00:37 / Wed Mar  2 01:17:20 2016
GPGPU-Sim PTX: 18900000 instructions simulated : ctaid=(7,7,0) tid=(2,5,0)
GPGPU-Sim PTX: 19000000 instructions simulated : ctaid=(0,7,0) tid=(2,2,0)
GPGPU-Sim uArch: Shader 6 finished CTA #2 (45429,0), 4 CTAs running
GPGPU-Sim uArch: core:  6, cta: 2 initialized @(45430,0)
[...]
traffic_breakdown_memtocore[LOCAL_ACC_R] = 1010752 {136:7432,}
traffic_breakdown_memtocore[LOCAL_ACC_W] = 354992 {8:44374,}
maxmrqlatency = 565 
maxdqlatency = 0 
maxmflatency = 1754 
averagemflatency = 260 
max_icnt2mem_latency = 1023 
max_icnt2sh_latency = 144436 
mrq_lat_table:13676 	1700 	1168 	2020 	4928 	3361 	3126 	1810 	277 	4 	0 	0 	0 	0 	0 	0 	0 	0 	0 	0 	0 	0 	0 	0 	0 	0 	0 	0 	0 	0 	0 	0 	
dq_lat_table:0 	0 	0 	0 	0 	0 	0 	0 	0 	0 	0 	0 	0 	0 	0 	0 	0 	0 	0 	0 	0 	0 	0 	0 	0 	0 	0 	0 	0 	0 	0 	0 	
mf_lat_table:0 	0 	0 	0 	0 	0 	0 	49500 	8820 	4754 	797 	0 	0 	0 	0 	0 	0 	0 	0 	0 	0 	0 	0 	0 	0 	0 	0 	0 	0 	0 	0 	0 	
icnt2mem_lat_table:0 	0 	0 	21213 	13262 	13396 	29570 	1986 	2402 	418 	0 	0 	0 	0 	0 	0 	0 	0 	0 	0 	0 	0 	0 	0 	
icnt2sh_lat_table:0 	0 	0 	5318 	4074 	1712 	201 	0 	0 	194 	519 	1441 	3103 	2543 	6124 	11004 	22437 	5201 	0 	0 	0 	0 	0 	0 	
mf_lat_pw_table:0 	0 	0 	0 	0 	0 	0 	241 	8 	16 	2 	0 	0 	0 	0 	0 	0 	0 	0 	0 	0 	0 	0 	0 	0 	0 	0 	0 	0 	0 	0 	0 	
maximum concurrent accesses to same row:
dram[0]:        54        56        36        34        26        22        36        33        30        20        22        15        19        23        18        22 
dram[1]:        52        54        34        32        20        22        36        35        24        19        13        18        31        23        18        20 
dram[2]:        62        62        52        54        28        28        26        22        28        28        18        19        19        20        22        20 
dram[3]:        58        60        52        54        26        26        41        39        28        24        21        17        29        20        41        18 
dram[4]:        62        64        56        52        30        28        28        36        28        24        18        23        15        22        20        20 
dram[5]:        58        60        56        48        26        30        24        35        20        26        16        14        12        22        18        28 
maximum service time to same row:
dram[0]:     17428     13056     16791     20847     15829     19460     18137     17098     18824     18241     57213     20264     22608     22411     36200     19692 
dram[1]:     22050      9512     17640     18077     16661     17452     14637     18252     18594     18632     35927     51085     37740     37879     35903     25653 
dram[2]:     24296     16400     16981     31566     16609     15769     17253     16894     18346     20869     31069     19635     23265     29452     19498     25678 
dram[3]:     12870     18861     32434     31385     22580     17558     17752     14262     19059     17776     52068     24899     22380     46570     21354     18372 
dram[4]:     15548     25459     30510     20628     16896     15891     18114     17947     18019     22144     24383     24440     23611     46913     21972     21012 
dram[5]:     14465     15431     33217     29488     16966     21819     17512     16746     16793     17468     22622     27849     22525     27514     19047     20991 
average row accesses per activate:
dram[0]:  6.820000  4.641791  5.588235  4.882353  3.797753  3.174757  3.645833  3.721154  3.333333  3.806123  3.662791  3.089431  3.631068  3.943182  4.088235  4.064935 
dram[1]:  5.754098  4.907692  4.983051  3.887324  3.645455  3.709302  3.535353  3.527472  3.194444  3.324561  3.488889  3.785714  3.891892  4.231707  3.511905  4.459016 
dram[2]:  5.431035  6.953488  5.263158  5.940000  3.522222  3.505618  3.568807  3.919540  3.705263  3.891304  3.546392  3.704545  4.388889  3.892473  4.180555  4.150685 
dram[3]:  7.119048  5.956522  5.933333  5.083333  3.930556  3.128205  4.166667  3.200000  4.820896  3.838384  3.820513  3.427083  4.215190  4.270588  6.435897  3.891566 
dram[4]:  5.767857  6.211538  7.828571  4.833333  3.677419  3.474747  3.878049  3.247934  3.400000  4.518987  3.565217  3.396039  3.846154  4.188889  4.216216  4.276923 
dram[5]:  5.179104  7.571429  5.349206  4.566667  3.188034  3.090909  3.380531  3.719101  3.469027  3.596330  3.189655  3.413043  3.347826  3.773196  3.781250  4.625000 
average row locality = 32070/8018 = 3.999751
number of total memory accesses made:
dram[0]:         0         0         0         0         0         0         0         0         0         0         0         0         0         0         0         0 
dram[1]:         0         0         0         0         0         0         0         0         0         0         0         0         0         0         0         0 
dram[2]:         0         0         0         0         0         0         0         0         0         0         0         0         0         0         0         0 
dram[3]:         0         0         0         0         0         0         0         0         0         0         0         0         0         0         0         0 
dram[4]:         0         0         0         0         0         0         0         0         0         0         0         0         0         0         0         0 
dram[5]:         0         0         0         0         0         0         0         0         0         0         0         0         0         0         0         0 
total accesses: 0
min_bank_accesses = 0!
min_chip_accesses = 0!
number of total read accesses:
dram[0]:       153       136       122       139       138       137       140       155       165       153       125       158       153       144       124       135 
dram[1]:       157       142       127       118       163       130       141       131       189       154       130       130       175       144       129       120 
dram[2]:       139       132       129       124       132       126       157       140       144       148       146       134       137       156       128       134 
dram[3]:       131       122       114       128       117       152       133       149       133       156       122       138       141       153       111       140 
dram[4]:       143       141       119       123       139       141       131       163       163       147       134       142       149       161       136       124 
dram[5]:       148       140       141       118       157       125       153       138       158       160       155       128       163       157       157       114 
total reads: 13471
bank skew: 189/111 = 1.70
chip skew: 2312/2140 = 1.08
number of total write accesses:
dram[0]:       188       175       163       193       200       190       210       232       235       220       190       222       221       203       154       178 
dram[1]:       194       177       167       158       238       189       209       190       271       225       184       188       257       203       166       152 
dram[2]:       176       167       171       173       185       186       232       201       208       210       198       192       179       206       173       169 
dram[3]:       168       152       153       177       166       214       192       219       190       224       176       191       192       210       140       183 
dram[4]:       180       182       155       167       203       203       187       230       228       210       194       201       201       216       176       154 
dram[5]:       199       178       196       156       216       181       229       193       234       232       215       186       222       209       206       145 
total reads: 18599
bank skew: 271/140 = 1.94
chip skew: 3197/2947 = 1.08
average mf latency per bank:
dram[0]:        518       457       569       474       537       521       606       524       509       508       583       514       524       534       581       521
dram[1]:        504       436       476       532       405       493       560       567       410       487       556       570       418       505       498       546
dram[2]:        480       532       534       529       546       551       518       589       518       517       553       536       567       492       517       490
dram[3]:        479       558       564       520       562       435       588       542       556       477       594       523       501       474       617       452
dram[4]:        502       451       604       566       518       531       656       531       500       553       563       559       531       514       511       610
dram[5]:        438       444       474       564       438       526       535       582       480       472       490       576       474       476       426       594
maximum mf latency per bank:
dram[0]:       1239      1188      1610      1425      1596      1336      1386      1197      1310      1060      1341      1153      1440      1154      1251      1137
dram[1]:        879       978      1268      1185      1239      1254      1121      1049      1130      1100      1035      1004      1058       973       929       900
dram[2]:       1260      1228      1633      1734      1438      1568      1662      1376      1308      1435      1315      1237      1143      1160      1232      1159
dram[3]:       1162      1262      1593      1569      1279      1675      1479      1413      1147      1397      1363      1211      1136      1156      1192      1229
dram[4]:       1307      1466      1754      1731      1617      1619      1606      1601      1464      1294      1311      1214      1269      1575      1327      1337
dram[5]:       1281      1309      1658      1532      1506      1444      1502      1564      1142      1042      1105      1123      1177      1107      1289      1130

Number of Memory Banks Accessed per Memory Operation per Warp (from 0):
0	0	0	0	0	0	0	0	0	0	0	0	0	0	0	0	0	0	0	0	0	0	0	0	0	0	0	0	0	0	0	0	0	0	0	0	0	0	0	0	0	0	0	0	0	0	0	0	0	0	0	0	0	0	0	0	0	0	0	0	0	0	0	0	0	0	0	0	0	0	0	0	0	0	0	0	0	0	0	0	0	0	0	0	0	0	0	0	0	0	0	0	0	0	0	0	
Average # of Memory Banks Accessed per Memory Operation per Warp=-nan

position of mrq chosen
0	0	0	0	0	0	0	0	0	0	0	0	0	0	0	0	

average position of mrq chosen = -nan
Memory Partition 0: 
Cache L2_bank_000:
MSHR contents

Cache L2_bank_001:
MSHR contents

In Dram Latency Queue (total = 0): 
DRAM[0]: 16 bks, busW=4 BL=8 CL=12, tRRD=2 tCCD=6, tRCD=12 tRAS=28 tRP=12 tRC=40
n_cmd=190656 n_nop=177451 n_act=1391 n_pre=1375 n_req=5451 n_rd=4554 n_write=5885 bw_util=0.05475
n_activity=52770 dram_eff=0.1978
bk0: 306a 182405i bk1: 272a 182777i bk2: 244a 182343i bk3: 278a 181641i bk4: 276a 179942i bk5: 274a 180166i bk6: 280a 179431i bk7: 310a 178942i bk8: 330a 179291i bk9: 306a 180043i bk10: 250a 181345i bk11: 316a 179169i bk12: 306a 179196i bk13: 288a 179834i bk14: 248a 182347i bk15: 270a 181592i 
dram_util_bins: 0 0 0 0 0 0 0 0 0 0
dram_eff_bins: 0 0 0 0 0 0 0 0 0 0
mrqq: max=16 avg=1.1685
Memory Partition 1: 
Cache L2_bank_002:
MSHR contents

Cache L2_bank_003:
MSHR contents

In Dram Latency Queue (total = 0): 
DRAM[1]: 16 bks, busW=4 BL=8 CL=12, tRRD=2 tCCD=6, tRCD=12 tRAS=28 tRP=12 tRC=40
n_cmd=190656 n_nop=177417 n_act=1412 n_pre=1396 n_req=5448 n_rd=4560 n_write=5871 bw_util=0.05471
n_activity=53482 dram_eff=0.195
bk0: 314a 182077i bk1: 284a 182477i bk2: 254a 182411i bk3: 236a 182291i bk4: 326a 179372i bk5: 260a 180250i bk6: 282a 178990i bk7: 262a 180213i bk8: 378a 178246i bk9: 308a 179765i bk10: 260a 180739i bk11: 260a 180132i bk12: 350a 178348i bk13: 288a 179943i bk14: 258a 181428i bk15: 240a 182624i 
dram_util_bins: 0 0 0 0 0 0 0 0 0 0
dram_eff_bins: 0 0 0 0 0 0 0 0 0 0
mrqq: max=16 avg=1.05918
Memory Partition 2: 
Cache L2_bank_004:
MSHR contents

Cache L2_bank_005:
MSHR contents

In Dram Latency Queue (total = 0): 
DRAM[2]: 16 bks, busW=4 BL=8 CL=12, tRRD=2 tCCD=6, tRCD=12 tRAS=28 tRP=12 tRC=40
n_cmd=190656 n_nop=178134 n_act=1265 n_pre=1249 n_req=5232 n_rd=4412 n_write=5596 bw_util=0.05249
n_activity=52295 dram_eff=0.1914
bk0: 278a 182777i bk1: 264a 183259i bk2: 258a 182401i bk3: 248a 182711i bk4: 264a 180605i bk5: 252a 179544i bk6: 314a 177978i bk7: 280a 179094i bk8: 288a 181193i bk9: 296a 180652i bk10: 292a 180075i bk11: 268a 180854i bk12: 274a 181135i bk13: 312a 179822i bk14: 256a 181615i bk15: 268a 181348i 
dram_util_bins: 0 0 0 0 0 0 0 0 0 0
dram_eff_bins: 0 0 0 0 0 0 0 0 0 0
mrqq: max=16 avg=1.14905
Memory Partition 3: 
Cache L2_bank_006:
MSHR contents

Cache L2_bank_007:
MSHR contents

In Dram Latency Queue (total = 0): 
DRAM[3]: 16 bks, busW=4 BL=8 CL=12, tRRD=2 tCCD=6, tRCD=12 tRAS=28 tRP=12 tRC=40
n_cmd=190656 n_nop=178559 n_act=1201 n_pre=1185 n_req=5087 n_rd=4280 n_write=5431 bw_util=0.05093
n_activity=49791 dram_eff=0.195
bk0: 262a 183532i bk1: 244a 183903i bk2: 228a 183454i bk3: 256a 182693i bk4: 234a 182348i bk5: 304a 179654i bk6: 266a 180934i bk7: 298a 179253i bk8: 266a 181924i bk9: 312a 180507i bk10: 244a 181297i bk11: 276a 180954i bk12: 282a 180821i bk13: 306a 179951i bk14: 222a 183618i bk15: 280a 181712i 
dram_util_bins: 0 0 0 0 0 0 0 0 0 0
dram_eff_bins: 0 0 0 0 0 0 0 0 0 0
mrqq: max=16 avg=1.05646
Memory Partition 4: 
Cache L2_bank_008:
MSHR contents

Cache L2_bank_009:
MSHR contents

In Dram Latency Queue (total = 0): 
DRAM[4]: 16 bks, busW=4 BL=8 CL=12, tRRD=2 tCCD=6, tRCD=12 tRAS=28 tRP=12 tRC=40
n_cmd=190656 n_nop=177840 n_act=1305 n_pre=1289 n_req=5343 n_rd=4512 n_write=5710 bw_util=0.05361
n_activity=54272 dram_eff=0.1883
bk0: 286a 183294i bk1: 282a 182866i bk2: 238a 183328i bk3: 246a 182927i bk4: 278a 180262i bk5: 282a 179328i bk6: 262a 180153i bk7: 326a 178119i bk8: 326a 179626i bk9: 294a 180498i bk10: 268a 181092i bk11: 284a 180376i bk12: 298a 180366i bk13: 322a 179481i bk14: 272a 181750i bk15: 248a 182230i 
dram_util_bins: 0 0 0 0 0 0 0 0 0 0
dram_eff_bins: 0 0 0 0 0 0 0 0 0 0
mrqq: max=16 avg=1.1488
Memory Partition 5: 
Cache L2_bank_010:
MSHR contents

Cache L2_bank_011:
MSHR contents

In Dram Latency Queue (total = 0): 
DRAM[5]: 16 bks, busW=4 BL=8 CL=12, tRRD=2 tCCD=6, tRCD=12 tRAS=28 tRP=12 tRC=40
n_cmd=190656 n_nop=177219 n_act=1444 n_pre=1428 n_req=5509 n_rd=4624 n_write=5941 bw_util=0.05541
n_activity=56230 dram_eff=0.1879
bk0: 296a 182325i bk1: 280a 183569i bk2: 282a 181879i bk3: 236a 182895i bk4: 314a 179573i bk5: 250a 180764i bk6: 306a 178923i bk7: 276a 180636i bk8: 316a 180090i bk9: 320a 179782i bk10: 310a 180099i bk11: 256a 181109i bk12: 326a 179374i bk13: 314a 180023i bk14: 314a 180797i bk15: 228a 182568i 
dram_util_bins: 0 0 0 0 0 0 0 0 0 0
dram_eff_bins: 0 0 0 0 0 0 0 0 0 0
mrqq: max=16 avg=1.0636

========= L2 cache stats =========
L2_cache_bank[0]: Access = 6905, Miss = 1120, Miss_rate = 0.162, Pending_hits = 92, Reservation_fails = 1109
L2_cache_bank[1]: Access = 7062, Miss = 1157, Miss_rate = 0.164, Pending_hits = 79, Reservation_fails = 608
L2_cache_bank[2]: Access = 6840, Miss = 1211, Miss_rate = 0.177, Pending_hits = 88, Reservation_fails = 618
L2_cache_bank[3]: Access = 6883, Miss = 1069, Miss_rate = 0.155, Pending_hits = 93, Reservation_fails = 385
L2_cache_bank[4]: Access = 6489, Miss = 1112, Miss_rate = 0.171, Pending_hits = 87, Reservation_fails = 640
L2_cache_bank[5]: Access = 6667, Miss = 1094, Miss_rate = 0.164, Pending_hits = 74, Reservation_fails = 453
L2_cache_bank[6]: Access = 6715, Miss = 1002, Miss_rate = 0.149, Pending_hits = 74, Reservation_fails = 444
L2_cache_bank[7]: Access = 6851, Miss = 1138, Miss_rate = 0.166, Pending_hits = 73, Reservation_fails = 400
L2_cache_bank[8]: Access = 7065, Miss = 1114, Miss_rate = 0.158, Pending_hits = 67, Reservation_fails = 199
L2_cache_bank[9]: Access = 6811, Miss = 1142, Miss_rate = 0.168, Pending_hits = 74, Reservation_fails = 306
L2_cache_bank[10]: Access = 7088, Miss = 1232, Miss_rate = 0.174, Pending_hits = 75, Reservation_fails = 635
L2_cache_bank[11]: Access = 6871, Miss = 1080, Miss_rate = 0.157, Pending_hits = 70, Reservation_fails = 570
L2_total_cache_accesses = 82247
L2_total_cache_misses = 13471
L2_total_cache_miss_rate = 0.1638
L2_total_cache_pending_hits = 946
L2_total_cache_reservation_fails = 6367
L2_total_cache_breakdown:
	L2_cache_stats_breakdown[GLOBAL_ACC_R][HIT] = 3654
	L2_cache_stats_breakdown[GLOBAL_ACC_R][HIT_RESERVED] = 13
	L2_cache_stats_breakdown[GLOBAL_ACC_R][MISS] = 176
	L2_cache_stats_breakdown[GLOBAL_ACC_R][RESERVATION_FAIL] = 90
	L2_cache_stats_breakdown[LOCAL_ACC_R][HIT] = 6853
	L2_cache_stats_breakdown[LOCAL_ACC_R][HIT_RESERVED] = 139
	L2_cache_stats_breakdown[LOCAL_ACC_R][MISS] = 440
	L2_cache_stats_breakdown[CONST_ACC_R][HIT] = 23
	L2_cache_stats_breakdown[CONST_ACC_R][HIT_RESERVED] = 5
	L2_cache_stats_breakdown[CONST_ACC_R][MISS] = 2
	L2_cache_stats_breakdown[CONST_ACC_R][RESERVATION_FAIL] = 215
	L2_cache_stats_breakdown[GLOBAL_ACC_W][HIT] = 5527
	L2_cache_stats_breakdown[GLOBAL_ACC_W][HIT_RESERVED] = 617
	L2_cache_stats_breakdown[GLOBAL_ACC_W][MISS] = 2048
	L2_cache_stats_breakdown[GLOBAL_ACC_W][RESERVATION_FAIL] = 21
	L2_cache_stats_breakdown[LOCAL_ACC_W][HIT] = 34943
	L2_cache_stats_breakdown[LOCAL_ACC_W][HIT_RESERVED] = 21
	L2_cache_stats_breakdown[LOCAL_ACC_W][MISS] = 9410
	L2_cache_stats_breakdown[LOCAL_ACC_W][RESERVATION_FAIL] = 730
	L2_cache_stats_breakdown[L1_WRBK_ACC][HIT] = 3697
	L2_cache_stats_breakdown[L1_WRBK_ACC][MISS] = 1342
	L2_cache_stats_breakdown[INST_ACC_R][HIT] = 13133
	L2_cache_stats_breakdown[INST_ACC_R][HIT_RESERVED] = 151
	L2_cache_stats_breakdown[INST_ACC_R][MISS] = 53
	L2_cache_stats_breakdown[INST_ACC_R][RESERVATION_FAIL] = 5311
L2_cache_data_port_util = 0.150
L2_cache_fill_port_util = 0.031

icnt_total_pkts_mem_to_simt=175716
icnt_total_pkts_simt_to_mem=293028
LD_mem_lat_dist  0 0 0 0 0 0 0 0 0 0 0 0 0 0 0 0 0 0 0 0 0 0 0 0 0 0 0
ST_mem_lat_dist  0 0 0 0 0 0 0 0 0 0 0 0 0 0 0 0 0 0 0 0 0 0 0 0 0 0 0
----------------------------Interconnect-DETAILS--------------------------------
Class 0:
Packet latency average = 17.1774
	minimum = 6
	maximum = 622
Network latency average = 13.473
	minimum = 6
	maximum = 580
Slowest packet = 673
Flit latency average = 12.512
	minimum = 6
	maximum = 576
Slowest flit = 14947
Fragmentation average = 0.10719
	minimum = 0
	maximum = 518
Injected packet rate average = 0.040888
	minimum = 0.0331009 (at node 4)
	maximum = 0.0460547 (at node 25)
Accepted packet rate average = 0.040888
	minimum = 0.0316816 (at node 4)
	maximum = 0.0490733 (at node 25)
Injected flit rate average = 0.120197
	minimum = 0.093134 (at node 19)
	maximum = 0.142263 (at node 1)
Accepted flit rate average= 0.120197
	minimum = 0.0655511 (at node 4)
	maximum = 0.173889 (at node 25)
Injected packet length average = 2.93966
Accepted packet length average = 2.93966
Total in-flight flits = 0 (0 measured)
====== Overall Traffic Statistics ======
====== Traffic class 0 ======
Packet latency average = 17.1774 (1 samples)
	minimum = 6 (1 samples)
	maximum = 622 (1 samples)
Network latency average = 13.473 (1 samples)
	minimum = 6 (1 samples)
	maximum = 580 (1 samples)
Flit latency average = 12.512 (1 samples)
	minimum = 6 (1 samples)
	maximum = 576 (1 samples)
Fragmentation average = 0.10719 (1 samples)
	minimum = 0 (1 samples)
	maximum = 518 (1 samples)
Injected packet rate average = 0.040888 (1 samples)
	minimum = 0.0331009 (1 samples)
	maximum = 0.0460547 (1 samples)
Accepted packet rate average = 0.040888 (1 samples)
	minimum = 0.0316816 (1 samples)
	maximum = 0.0490733 (1 samples)
Injected flit rate average = 0.120197 (1 samples)
	minimum = 0.093134 (1 samples)
	maximum = 0.142263 (1 samples)
Accepted flit rate average = 0.120197 (1 samples)
	minimum = 0.0655511 (1 samples)
	maximum = 0.173889 (1 samples)
Injected packet size average = 2.93966 (1 samples)
Accepted packet size average = 2.93966 (1 samples)
Hops average = 1 (1 samples)
----------------------------END-of-Interconnect-DETAILS-------------------------


gpgpu_simulation_time = 0 days, 0 hrs, 2 min, 9 sec (129 sec)
gpgpu_simulation_rate = 485911 (inst/sec)
gpgpu_simulation_rate = 1119 (cycle/sec)
GPGPU-Sim API: Stream Manager State
GPGPU-Sim: detected inactive GPU simulation thread

checksum=75ef40cb5b8e
Kernel Time: 128848.984375 
