

        *** GPGPU-Sim Simulator Version 3.2.2  [build 0] ***


GPGPU-Sim PTX: simulation mode 0 (can change with PTX_SIM_MODE_FUNC environment variable:
               1=functional simulation only, 0=detailed performance simulator)
GPGPU-Sim: Configuration options:

-network_mode                           1 # Interconnection network mode
-inter_config_file   config_fermi_islip.icnt # Interconnection network config file
-gpgpu_ptx_use_cuobjdump                    1 # Use cuobjdump to extract ptx and sass from binaries
-gpgpu_experimental_lib_support                    0 # Try to extract code from cuda libraries [Broken because of unknown cudaGetExportTable]
-gpgpu_ptx_convert_to_ptxplus                    0 # Convert SASS (native ISA) to ptxplus and run ptxplus
-gpgpu_ptx_force_max_capability                   20 # Force maximum compute capability
-gpgpu_ptx_inst_debug_to_file                    0 # Dump executed instructions' debug information to file
-gpgpu_ptx_inst_debug_file       inst_debug.txt # Executed instructions' debug output file
-gpgpu_ptx_inst_debug_thread_uid                    1 # Thread UID for executed instructions' debug output
-gpgpu_simd_model                       1 # 1 = post-dominator
-gpgpu_shader_core_pipeline              1536:32 # shader core pipeline config, i.e., {<nthread>:<warpsize>}
-gpgpu_tex_cache:l1  4:128:24,L:R:m:N:L,F:128:4,128:2 # per-shader L1 texture cache  (READ-ONLY) config  {<nsets>:<bsize>:<assoc>,<rep>:<wr>:<alloc>:<wr_alloc>,<mshr>:<N>:<merge>,<mq>:<rf>}
-gpgpu_const_cache:l1 64:64:2,L:R:f:N:L,A:2:32,4 # per-shader L1 constant memory cache  (READ-ONLY) config  {<nsets>:<bsize>:<assoc>,<rep>:<wr>:<alloc>:<wr_alloc>,<mshr>:<N>:<merge>,<mq>} 
-gpgpu_cache:il1     4:128:4,L:R:f:N:L,A:2:32,4 # shader L1 instruction cache config  {<nsets>:<bsize>:<assoc>,<rep>:<wr>:<alloc>:<wr_alloc>,<mshr>:<N>:<merge>,<mq>} 
-gpgpu_cache:dl1     32:128:4,L:L:m:N:H,A:32:8,8 # per-shader L1 data cache config  {<nsets>:<bsize>:<assoc>,<rep>:<wr>:<alloc>:<wr_alloc>,<mshr>:<N>:<merge>,<mq> | none}
-gpgpu_cache:dl1PrefL1                 none # per-shader L1 data cache config  {<nsets>:<bsize>:<assoc>,<rep>:<wr>:<alloc>:<wr_alloc>,<mshr>:<N>:<merge>,<mq> | none}
-gpgpu_cache:dl1PreShared                 none # per-shader L1 data cache config  {<nsets>:<bsize>:<assoc>,<rep>:<wr>:<alloc>:<wr_alloc>,<mshr>:<N>:<merge>,<mq> | none}
-gmem_skip_L1D                          0 # global memory access skip L1D cache (implements -Xptxas -dlcm=cg, default=no skip)
-gpgpu_perfect_mem                      0 # enable perfect memory mode (no cache miss)
-n_regfile_gating_group                    4 # group of lanes that should be read/written together)
-gpgpu_clock_gated_reg_file                    0 # enable clock gated reg file for power calculations
-gpgpu_clock_gated_lanes                    0 # enable clock gated lanes for power calculations
-gpgpu_shader_registers                32768 # Number of registers per shader core. Limits number of concurrent CTAs. (default 8192)
-gpgpu_shader_cta                       8 # Maximum number of concurrent CTAs in shader (default 8)
-gpgpu_num_cta_barriers                   16 # Maximum number of named barriers per CTA (default 16)
-gpgpu_n_clusters                      15 # number of processing clusters
-gpgpu_n_cores_per_cluster                    1 # number of simd cores per cluster
-gpgpu_n_cluster_ejection_buffer_size                    8 # number of packets in ejection buffer
-gpgpu_n_ldst_response_buffer_size                    2 # number of response packets in ld/st unit ejection buffer
-gpgpu_shmem_size                   16384 # Size of shared memory per shader core (default 16kB)
-gpgpu_shmem_size                   49152 # Size of shared memory per shader core (default 16kB)
-gpgpu_shmem_size_PrefL1                16384 # Size of shared memory per shader core (default 16kB)
-gpgpu_shmem_size_PrefShared                16384 # Size of shared memory per shader core (default 16kB)
-gpgpu_shmem_num_banks                   32 # Number of banks in the shared memory in each shader core (default 16)
-gpgpu_shmem_limited_broadcast                    0 # Limit shared memory to do one broadcast per cycle (default on)
-gpgpu_shmem_warp_parts                    1 # Number of portions a warp is divided into for shared memory bank conflict check 
-gpgpu_warpdistro_shader                   -1 # Specify which shader core to collect the warp size distribution from
-gpgpu_warp_issue_shader                    0 # Specify which shader core to collect the warp issue distribution from
-gpgpu_local_mem_map                    1 # Mapping from local memory space address to simulated GPU physical address space (default = enabled)
-gpgpu_num_reg_banks                   16 # Number of register banks (default = 8)
-gpgpu_reg_bank_use_warp_id                    0 # Use warp ID in mapping registers to banks (default = off)
-gpgpu_operand_collector_num_units_sp                    6 # number of collector units (default = 4)
-gpgpu_operand_collector_num_units_sfu                    8 # number of collector units (default = 4)
-gpgpu_operand_collector_num_units_mem                    2 # number of collector units (default = 2)
-gpgpu_operand_collector_num_units_gen                    0 # number of collector units (default = 0)
-gpgpu_operand_collector_num_in_ports_sp                    2 # number of collector unit in ports (default = 1)
-gpgpu_operand_collector_num_in_ports_sfu                    1 # number of collector unit in ports (default = 1)
-gpgpu_operand_collector_num_in_ports_mem                    1 # number of collector unit in ports (default = 1)
-gpgpu_operand_collector_num_in_ports_gen                    0 # number of collector unit in ports (default = 0)
-gpgpu_operand_collector_num_out_ports_sp                    2 # number of collector unit in ports (default = 1)
-gpgpu_operand_collector_num_out_ports_sfu                    1 # number of collector unit in ports (default = 1)
-gpgpu_operand_collector_num_out_ports_mem                    1 # number of collector unit in ports (default = 1)
-gpgpu_operand_collector_num_out_ports_gen                    0 # number of collector unit in ports (default = 0)
-gpgpu_coalesce_arch                   13 # Coalescing arch (default = 13, anything else is off for now)
-gpgpu_num_sched_per_core                    2 # Number of warp schedulers per core
-gpgpu_max_insn_issue_per_warp                    1 # Max number of instructions that can be issued per warp in one cycle by scheduler
-gpgpu_simt_core_sim_order                    1 # Select the simulation order of cores in a cluster (0=Fix, 1=Round-Robin)
-gpgpu_pipeline_widths        2,1,1,2,1,1,2 # Pipeline widths ID_OC_SP,ID_OC_SFU,ID_OC_MEM,OC_EX_SP,OC_EX_SFU,OC_EX_MEM,EX_WB
-gpgpu_num_sp_units                     2 # Number of SP units (default=1)
-gpgpu_num_sfu_units                    1 # Number of SF units (default=1)
-gpgpu_num_mem_units                    1 # Number if ldst units (default=1) WARNING: not hooked up to anything
-gpgpu_scheduler                      gto # Scheduler configuration: < lrr | gto | two_level_active > If two_level_active:<num_active_warps>:<inner_prioritization>:<outer_prioritization>For complete list of prioritization values see shader.h enum scheduler_prioritization_typeDefault: gto
-gpgpu_dram_scheduler                    1 # 0 = fifo, 1 = FR-FCFS (defaul)
-gpgpu_dram_partition_queues              8:8:8:8 # i2$:$2d:d2$:$2i
-l2_ideal                               0 # Use a ideal L2 cache that always hit
-gpgpu_cache:dl2     64:128:8,L:B:m:W:L,A:32:4,4:0,32 # unified banked L2 data cache config  {<nsets>:<bsize>:<assoc>,<rep>:<wr>:<alloc>:<wr_alloc>,<mshr>:<N>:<merge>,<mq>}
-gpgpu_cache:dl2_texture_only                    0 # L2 cache used for texture only
-gpgpu_n_mem                            6 # number of memory modules (e.g. memory controllers) in gpu
-gpgpu_n_sub_partition_per_mchannel                    2 # number of memory subpartition in each memory module
-gpgpu_n_mem_per_ctrlr                    2 # number of memory chips per memory controller
-gpgpu_memlatency_stat                   14 # track and display latency statistics 0x2 enables MC, 0x4 enables queue logs
-gpgpu_frfcfs_dram_sched_queue_size                   16 # 0 = unlimited (default); # entries per chip
-gpgpu_dram_return_queue_size                  116 # 0 = unlimited (default); # entries per chip
-gpgpu_dram_buswidth                    4 # default = 4 bytes (8 bytes per cycle at DDR)
-gpgpu_dram_burst_length                    8 # Burst length of each DRAM request (default = 4 data bus cycle)
-dram_data_command_freq_ratio                    1 # Frequency ratio between DRAM data bus and command bus (default = 2 times, i.e. DDR)
-gpgpu_dram_timing_opt nbk=16:CCD=2:RRD=6:RCD=12:RAS=28:RP=12:RC=40: CL=12:WL=4:CDLR=5:WR=12:nbkgrp=4:CCDL=3:RTPL=2 # DRAM timing parameters = {nbk:tCCD:tRRD:tRCD:tRAS:tRP:tRC:CL:WL:tCDLR:tWR:nbkgrp:tCCDL:tRTPL}
-rop_latency                          120 # ROP queue latency (default 85)
-dram_latency                         100 # DRAM latency (default 30)
-gpgpu_mem_addr_mapping dramid@8;00000000.00000000.00000000.00000000.0000RRRR.RRRRRRRR.BBBCCCCB.CCSSSSSS # mapping memory address to dram model {dramid@<start bit>;<memory address map>}
-gpgpu_mem_addr_test                    0 # run sweep test to check address mapping for aliased address
-gpgpu_mem_address_mask                    1 # 0 = old addressing mask, 1 = new addressing mask, 2 = new add. mask + flipped bank sel and chip sel bits
-gpuwattch_xml_file  gpuwattch_gtx480.xml # GPUWattch XML file
-power_simulation_enabled                    0 # Turn on power simulator (1=On, 0=Off)
-power_per_cycle_dump                    0 # Dump detailed power output each cycle
-power_trace_enabled                    0 # produce a file for the power trace (1=On, 0=Off)
-power_trace_zlevel                     6 # Compression level of the power trace output log (0=no comp, 9=highest)
-steady_power_levels_enabled                    0 # produce a file for the steady power levels (1=On, 0=Off)
-steady_state_definition                  8:4 # allowed deviation:number of samples
-gpgpu_max_cycle                        0 # terminates gpu simulation early (0 = no limit)
-gpgpu_max_insn                         0 # terminates gpu simulation early (0 = no limit)
-gpgpu_max_cta                          0 # terminates gpu simulation early (0 = no limit)
-gpgpu_runtime_stat                   500 # display runtime statistics such as dram utilization {<freq>:<flag>}
-liveness_message_freq                    1 # Minimum number of seconds between simulation liveness messages (0 = always print)
-gpgpu_flush_l1_cache                    0 # Flush L1 cache at the end of each kernel call
-gpgpu_flush_l2_cache                    0 # Flush L2 cache at the end of each kernel call
-gpgpu_deadlock_detect                    1 # Stop the simulation at deadlock (1=on (default), 0=off)
-gpgpu_ptx_instruction_classification                    0 # if enabled will classify ptx instruction types per kernel (Max 255 kernels now)
-gpgpu_ptx_sim_mode                     0 # Select between Performance (default) or Functional simulation (1)
-gpgpu_clock_domains 700.0:700.0:700.0:924.0 # Clock Domain Frequencies in MhZ {<Core Clock>:<ICNT Clock>:<L2 Clock>:<DRAM Clock>}
-gpgpu_max_concurrent_kernel                    8 # maximum kernels that can run concurrently on GPU
-gpgpu_cflog_interval                    0 # Interval between each snapshot in control flow logger
-visualizer_enabled                     0 # Turn on visualizer output (1=On, 0=Off)
-visualizer_outputfile                 NULL # Specifies the output log file for visualizer
-visualizer_zlevel                      6 # Compression level of the visualizer output log (0=no comp, 9=highest)
-trace_enabled                          0 # Turn on traces
-trace_components                    none # comma seperated list of traces to enable. Complete list found in trace_streams.tup. Default none
-trace_sampling_core                    0 # The core which is printed using CORE_DPRINTF. Default 0
-trace_sampling_memory_partition                   -1 # The memory partition which is printed using MEMPART_DPRINTF. Default -1 (i.e. all)
-enable_ptx_file_line_stats                    1 # Turn on PTX source line statistic profiling. (1 = On)
-ptx_line_stats_filename gpgpu_inst_stats.txt # Output file for PTX source line statistics.
-save_embedded_ptx                      0 # saves ptx files embedded in binary as <n>.ptx
-keep                                   0 # keep intermediate files created by GPGPU-Sim when interfacing with external programs
-gpgpu_ptx_save_converted_ptxplus                    0 # Saved converted ptxplus to a file
-ptx_opcode_latency_int         4,13,4,5,145 # Opcode latencies for integers <ADD,MAX,MUL,MAD,DIV>Default 1,1,19,25,145
-ptx_opcode_latency_fp          4,13,4,5,39 # Opcode latencies for single precision floating points <ADD,MAX,MUL,MAD,DIV>Default 1,1,1,1,30
-ptx_opcode_latency_dp         8,19,8,8,330 # Opcode latencies for double precision floating points <ADD,MAX,MUL,MAD,DIV>Default 8,8,8,8,335
-ptx_opcode_initiation_int            1,2,2,1,8 # Opcode initiation intervals for integers <ADD,MAX,MUL,MAD,DIV>Default 1,1,4,4,32
-ptx_opcode_initiation_fp            1,2,1,1,4 # Opcode initiation intervals for single precision floating points <ADD,MAX,MUL,MAD,DIV>Default 1,1,1,1,5
-ptx_opcode_initiation_dp         8,16,8,8,130 # Opcode initiation intervals for double precision floating points <ADD,MAX,MUL,MAD,DIV>Default 8,8,8,8,130
DRAM Timing Options:
nbk                                    16 # number of banks
CCD                                     2 # column to column delay
RRD                                     6 # minimal delay between activation of rows in different banks
RCD                                    12 # row to column delay
RAS                                    28 # time needed to activate row
RP                                     12 # time needed to precharge (deactivate) row
RC                                     40 # row cycle time
CDLR                                    5 # switching from write to read (changes tWTR)
WR                                     12 # last data-in to row precharge
CL                                     12 # CAS latency
WL                                      4 # Write latency
nbkgrp                                  4 # number of bank groups
CCDL                                    3 # column to column delay between accesses to different bank groups
RTPL                                    2 # read to precharge delay between accesses to different bank groups
Total number of memory sub partition = 12
addr_dec_mask[CHIP]  = 0000000000000000 	high:64 low:0
addr_dec_mask[BK]    = 000000000000e100 	high:16 low:8
addr_dec_mask[ROW]   = 000000000fff0000 	high:28 low:16
addr_dec_mask[COL]   = 0000000000001eff 	high:13 low:0
addr_dec_mask[BURST] = 000000000000003f 	high:6 low:0
sub_partition_id_mask = 0000000000000100
GPGPU-Sim uArch: clock freqs: 700000000.000000:700000000.000000:700000000.000000:924000000.000000
GPGPU-Sim uArch: clock periods: 0.00000000142857142857:0.00000000142857142857:0.00000000142857142857:0.00000000108225108225
*** Initializing Memory Statistics ***
GPGPU-Sim uArch: interconnect node map (shaderID+MemID to icntID)
GPGPU-Sim uArch: Memory nodes ID start from index: 15
GPGPU-Sim uArch:    0   1   2   3   4
GPGPU-Sim uArch:    5   6   7   8   9
GPGPU-Sim uArch:   10  11  12  13  14
GPGPU-Sim uArch:   15  16  17  18  19
GPGPU-Sim uArch:   20  21  22  23  24
GPGPU-Sim uArch:   25  26
GPGPU-Sim uArch: interconnect node reverse map (icntID to shaderID+MemID)
GPGPU-Sim uArch: Memory nodes start from ID: 15
GPGPU-Sim uArch:    0   1   2   3   4
GPGPU-Sim uArch:    5   6   7   8   9
GPGPU-Sim uArch:   10  11  12  13  14
GPGPU-Sim uArch:   15  16  17  18  19
GPGPU-Sim uArch:   20  21  22  23  24
GPGPU-Sim uArch:   25  26
e389dacb331e7fcddf4abf4a164344f1  /sciclone/data20/adwait/applications/benchmarks/CUDA/BlackScholes/gpgpu_ptx_sim__BlackScholes
GPGPU-Sim uArch: performance model initialization complete.
GPGPU-Sim PTX: __cudaRegisterFatBinary, fat_cubin_handle = 1, filename=BlackScholes.cu
self exe links to: /sciclone/data20/adwait/applications/benchmarks/CUDA/BlackScholes/gpgpu_ptx_sim__BlackScholes
Running md5sum using "md5sum /sciclone/data20/adwait/applications/benchmarks/CUDA/BlackScholes/gpgpu_ptx_sim__BlackScholes "
Parsing file _cuobjdump_complete_output_yZBLH9
######### cuobjdump parser ########
## Adding new section ELF
Adding arch: sm_20
Adding identifier: BlackScholes.cu
## Adding new section PTX
Adding ptx filename: _cuobjdump_1.ptx
Adding arch: sm_20
Adding identifier: BlackScholes.cu
Done parsing!!!
GPGPU-Sim PTX: __cudaRegisterFunction _Z15BlackScholesGPUPfS_S_S_S_ffi : hostFun 0x0x405752, fat_cubin_handle = 1
GPGPU-Sim PTX: instruction assembly for function '_Z15BlackScholesGPUPfS_S_S_S_ffi'...   done.
GPGPU-Sim PTX: finding reconvergence points for '_Z15BlackScholesGPUPfS_S_S_S_ffi'...
GPGPU-Sim PTX: Finding dominators for '_Z15BlackScholesGPUPfS_S_S_S_ffi'...
GPGPU-Sim PTX: Finding immediate dominators for '_Z15BlackScholesGPUPfS_S_S_S_ffi'...
GPGPU-Sim PTX: Finding postdominators for '_Z15BlackScholesGPUPfS_S_S_S_ffi'...
GPGPU-Sim PTX: Finding immediate postdominators for '_Z15BlackScholesGPUPfS_S_S_S_ffi'...
GPGPU-Sim PTX: pre-decoding instructions for '_Z15BlackScholesGPUPfS_S_S_S_ffi'...
GPGPU-Sim PTX: reconvergence points for _Z15BlackScholesGPUPfS_S_S_S_ffi...
GPGPU-Sim PTX:  1 (potential) branch divergence @  PC=0x040 (_1.ptx:76) @%p1 bra $Lt_0_2818;
GPGPU-Sim PTX:    immediate post dominator      @  PC=0x3f8 (_1.ptx:200) exit;
GPGPU-Sim PTX:  2 (potential) branch divergence @  PC=0x3f0 (_1.ptx:197) @%p4 bra $Lt_0_3330;
GPGPU-Sim PTX:    immediate post dominator      @  PC=0x3f8 (_1.ptx:200) exit;
GPGPU-Sim PTX: ... end of reconvergence points for _Z15BlackScholesGPUPfS_S_S_S_ffi
GPGPU-Sim PTX: ... done pre-decoding instructions for '_Z15BlackScholesGPUPfS_S_S_S_ffi'.
GPGPU-Sim PTX: finished parsing EMBEDDED .ptx file _1.ptx
Adding _cuobjdump_1.ptx with cubin handle 1
GPGPU-Sim PTX: extracting embedded .ptx to temporary file "_ptx_jznZRb"
Running: cat _ptx_jznZRb | sed 's/.version 1.5/.version 1.4/' | sed 's/, texmode_independent//' | sed 's/\(\.extern \.const\[1\] .b8 \w\+\)\[\]/\1\[1\]/' | sed 's/const\[.\]/const\[0\]/g' > _ptx2_SoDKue
GPGPU-Sim PTX: generating ptxinfo using "$CUDA_INSTALL_PATH/bin/ptxas --gpu-name=sm_20 -v _ptx2_SoDKue --output-file  /dev/null 2> _ptx_jznZRbinfo"
GPGPU-Sim PTX: Kernel '_Z15BlackScholesGPUPfS_S_S_S_ffi' : regs=31, lmem=0, smem=0, cmem=128
GPGPU-Sim PTX: removing ptxinfo using "rm -f _ptx_jznZRb _ptx2_SoDKue _ptx_jznZRbinfo"
GPGPU-Sim PTX: loading globals with explicit initializers... 
GPGPU-Sim PTX: finished loading globals (0 bytes total).
GPGPU-Sim PTX: loading constants with explicit initializers...  done.
Initializing data...
...allocating CPU memory for options.
...allocating GPU memory for options.
...generating input data in CPU mem.
...copying input data to GPU mem.
Data init done.
Executing Black-Scholes GPU kernel (1 iterations)...
GPGPU-Sim: synchronize waiting for inactive GPU simulation
GPGPU-Sim API: Stream Manager State
GPGPU-Sim: detected inactive GPU simulation thread

GPGPU-Sim PTX: cudaLaunch for 0x0x405752 (mode=performance simulation) on stream 0
GPGPU-Sim PTX: pushing kernel '_Z15BlackScholesGPUPfS_S_S_S_ffi' to stream 0, gridDim= (480,1,1) blockDim = (128,1,1) 
kernel '_Z15BlackScholesGPUPfS_S_S_S_ffi' transfer to GPU hardware scheduler
GPGPU-Sim uArch: Shader 1 bind to kernel 1 '_Z15BlackScholesGPUPfS_S_S_S_ffi'
GPGPU-Sim uArch: CTA/core = 8, limited by: regs cta_limit
GPGPU-Sim uArch: core:  1, cta: 0 initialized @(1,0)
GPGPU-Sim uArch: Shader 2 bind to kernel 1 '_Z15BlackScholesGPUPfS_S_S_S_ffi'
GPGPU-Sim uArch: core:  2, cta: 0 initialized @(1,0)
GPGPU-Sim uArch: Shader 3 bind to kernel 1 '_Z15BlackScholesGPUPfS_S_S_S_ffi'
GPGPU-Sim uArch: core:  3, cta: 0 initialized @(1,0)
GPGPU-Sim uArch: Shader 4 bind to kernel 1 '_Z15BlackScholesGPUPfS_S_S_S_ffi'
GPGPU-Sim uArch: core:  4, cta: 0 initialized @(1,0)
GPGPU-Sim uArch: Shader 5 bind to kernel 1 '_Z15BlackScholesGPUPfS_S_S_S_ffi'
GPGPU-Sim uArch: core:  5, cta: 0 initialized @(1,0)
GPGPU-Sim uArch: Shader 6 bind to kernel 1 '_Z15BlackScholesGPUPfS_S_S_S_ffi'
GPGPU-Sim uArch: core:  6, cta: 0 initialized @(1,0)
GPGPU-Sim uArch: Shader 7 bind to kernel 1 '_Z15BlackScholesGPUPfS_S_S_S_ffi'
GPGPU-Sim uArch: core:  7, cta: 0 initialized @(1,0)
GPGPU-Sim uArch: Shader 8 bind to kernel 1 '_Z15BlackScholesGPUPfS_S_S_S_ffi'
GPGPU-Sim uArch: core:  8, cta: 0 initialized @(1,0)
GPGPU-Sim uArch: Shader 9 bind to kernel 1 '_Z15BlackScholesGPUPfS_S_S_S_ffi'
GPGPU-Sim uArch: core:  9, cta: 0 initialized @(1,0)
GPGPU-Sim uArch: Shader 10 bind to kernel 1 '_Z15BlackScholesGPUPfS_S_S_S_ffi'
GPGPU-Sim uArch: core: 10, cta: 0 initialized @(1,0)
GPGPU-Sim uArch: Shader 11 bind to kernel 1 '_Z15BlackScholesGPUPfS_S_S_S_ffi'
GPGPU-Sim uArch: core: 11, cta: 0 initialized @(1,0)
GPGPU-Sim uArch: Shader 12 bind to kernel 1 '_Z15BlackScholesGPUPfS_S_S_S_ffi'
GPGPU-Sim uArch: core: 12, cta: 0 initialized @(1,0)
GPGPU-Sim uArch: Shader 13 bind to kernel 1 '_Z15BlackScholesGPUPfS_S_S_S_ffi'
GPGPU-Sim uArch: core: 13, cta: 0 initialized @(1,0)
GPGPU-Sim uArch: Shader 14 bind to kernel 1 '_Z15BlackScholesGPUPfS_S_S_S_ffi'
GPGPU-Sim uArch: core: 14, cta: 0 initialized @(1,0)
GPGPU-Sim uArch: Shader 0 bind to kernel 1 '_Z15BlackScholesGPUPfS_S_S_S_ffi'
GPGPU-Sim uArch: core:  0, cta: 0 initialized @(1,0)
GPGPU-Sim uArch: core:  1, cta: 1 initialized @(2,0)
GPGPU-Sim uArch: core:  2, cta: 1 initialized @(2,0)
GPGPU-Sim uArch: core:  3, cta: 1 initialized @(2,0)
GPGPU-Sim uArch: core:  4, cta: 1 initialized @(2,0)
GPGPU-Sim uArch: core:  5, cta: 1 initialized @(2,0)
GPGPU-Sim uArch: core:  6, cta: 1 initialized @(2,0)
GPGPU-Sim uArch: core:  7, cta: 1 initialized @(2,0)
GPGPU-Sim uArch: core:  8, cta: 1 initialized @(2,0)
GPGPU-Sim uArch: core:  9, cta: 1 initialized @(2,0)
GPGPU-Sim uArch: core: 10, cta: 1 initialized @(2,0)
GPGPU-Sim uArch: core: 11, cta: 1 initialized @(2,0)
GPGPU-Sim uArch: core: 12, cta: 1 initialized @(2,0)
GPGPU-Sim uArch: core: 13, cta: 1 initialized @(2,0)
GPGPU-Sim uArch: core: 14, cta: 1 initialized @(2,0)
GPGPU-Sim uArch: core:  0, cta: 1 initialized @(2,0)
GPGPU-Sim uArch: core:  1, cta: 2 initialized @(3,0)
GPGPU-Sim uArch: core:  2, cta: 2 initialized @(3,0)
GPGPU-Sim uArch: core:  3, cta: 2 initialized @(3,0)
GPGPU-Sim uArch: core:  4, cta: 2 initialized @(3,0)
GPGPU-Sim uArch: core:  5, cta: 2 initialized @(3,0)
GPGPU-Sim uArch: core:  6, cta: 2 initialized @(3,0)
GPGPU-Sim uArch: core:  7, cta: 2 initialized @(3,0)
GPGPU-Sim uArch: core:  8, cta: 2 initialized @(3,0)
GPGPU-Sim uArch: core:  9, cta: 2 initialized @(3,0)
GPGPU-Sim uArch: core: 10, cta: 2 initialized @(3,0)
GPGPU-Sim uArch: core: 11, cta: 2 initialized @(3,0)
GPGPU-Sim uArch: core: 12, cta: 2 initialized @(3,0)
GPGPU-Sim uArch: core: 13, cta: 2 initialized @(3,0)
GPGPU-Sim uArch: core: 14, cta: 2 initialized @(3,0)
GPGPU-Sim uArch: core:  0, cta: 2 initialized @(3,0)
GPGPU-Sim uArch: core:  1, cta: 3 initialized @(4,0)
GPGPU-Sim uArch: core:  2, cta: 3 initialized @(4,0)
GPGPU-Sim uArch: core:  3, cta: 3 initialized @(4,0)
GPGPU-Sim uArch: core:  4, cta: 3 initialized @(4,0)
GPGPU-Sim uArch: core:  5, cta: 3 initialized @(4,0)
GPGPU-Sim uArch: core:  6, cta: 3 initialized @(4,0)
GPGPU-Sim uArch: core:  7, cta: 3 initialized @(4,0)
GPGPU-Sim uArch: core:  8, cta: 3 initialized @(4,0)
GPGPU-Sim uArch: core:  9, cta: 3 initialized @(4,0)
GPGPU-Sim uArch: core: 10, cta: 3 initialized @(4,0)
GPGPU-Sim uArch: core: 11, cta: 3 initialized @(4,0)
GPGPU-Sim uArch: core: 12, cta: 3 initialized @(4,0)
GPGPU-Sim uArch: core: 13, cta: 3 initialized @(4,0)
GPGPU-Sim uArch: core: 14, cta: 3 initialized @(4,0)
GPGPU-Sim uArch: core:  0, cta: 3 initialized @(4,0)
GPGPU-Sim uArch: core:  1, cta: 4 initialized @(5,0)
GPGPU-Sim uArch: core:  2, cta: 4 initialized @(5,0)
GPGPU-Sim uArch: core:  3, cta: 4 initialized @(5,0)
GPGPU-Sim uArch: core:  4, cta: 4 initialized @(5,0)
GPGPU-Sim uArch: core:  5, cta: 4 initialized @(5,0)
GPGPU-Sim uArch: core:  6, cta: 4 initialized @(5,0)
GPGPU-Sim uArch: core:  7, cta: 4 initialized @(5,0)
GPGPU-Sim uArch: core:  8, cta: 4 initialized @(5,0)
GPGPU-Sim uArch: core:  9, cta: 4 initialized @(5,0)
GPGPU-Sim uArch: core: 10, cta: 4 initialized @(5,0)
GPGPU-Sim uArch: core: 11, cta: 4 initialized @(5,0)
GPGPU-Sim uArch: core: 12, cta: 4 initialized @(5,0)
GPGPU-Sim uArch: core: 13, cta: 4 initialized @(5,0)
GPGPU-Sim uArch: core: 14, cta: 4 initialized @(5,0)
GPGPU-Sim uArch: core:  0, cta: 4 initialized @(5,0)
GPGPU-Sim uArch: core:  1, cta: 5 initialized @(6,0)
GPGPU-Sim uArch: core:  2, cta: 5 initialized @(6,0)
GPGPU-Sim uArch: core:  3, cta: 5 initialized @(6,0)
GPGPU-Sim uArch: core:  4, cta: 5 initialized @(6,0)
GPGPU-Sim uArch: core:  5, cta: 5 initialized @(6,0)
GPGPU-Sim uArch: core:  6, cta: 5 initialized @(6,0)
GPGPU-Sim uArch: core:  7, cta: 5 initialized @(6,0)
GPGPU-Sim uArch: core:  8, cta: 5 initialized @(6,0)
GPGPU-Sim uArch: core:  9, cta: 5 initialized @(6,0)
GPGPU-Sim uArch: core: 10, cta: 5 initialized @(6,0)
GPGPU-Sim uArch: core: 11, cta: 5 initialized @(6,0)
GPGPU-Sim uArch: core: 12, cta: 5 initialized @(6,0)
GPGPU-Sim uArch: core: 13, cta: 5 initialized @(6,0)
GPGPU-Sim uArch: core: 14, cta: 5 initialized @(6,0)
GPGPU-Sim uArch: core:  0, cta: 5 initialized @(6,0)
GPGPU-Sim uArch: core:  1, cta: 6 initialized @(7,0)
GPGPU-Sim uArch: core:  2, cta: 6 initialized @(7,0)
GPGPU-Sim uArch: core:  3, cta: 6 initialized @(7,0)
GPGPU-Sim uArch: core:  4, cta: 6 initialized @(7,0)
GPGPU-Sim uArch: core:  5, cta: 6 initialized @(7,0)
GPGPU-Sim uArch: core:  6, cta: 6 initialized @(7,0)
GPGPU-Sim uArch: core:  7, cta: 6 initialized @(7,0)
GPGPU-Sim uArch: core:  8, cta: 6 initialized @(7,0)
GPGPU-Sim uArch: core:  9, cta: 6 initialized @(7,0)
GPGPU-Sim uArch: core: 10, cta: 6 initialized @(7,0)
GPGPU-Sim uArch: core: 11, cta: 6 initialized @(7,0)
GPGPU-Sim uArch: core: 12, cta: 6 initialized @(7,0)
GPGPU-Sim uArch: core: 13, cta: 6 initialized @(7,0)
GPGPU-Sim uArch: core: 14, cta: 6 initialized @(7,0)
GPGPU-Sim uArch: core:  0, cta: 6 initialized @(7,0)
GPGPU-Sim uArch: core:  1, cta: 7 initialized @(8,0)
GPGPU-Sim uArch: core:  2, cta: 7 initialized @(8,0)
GPGPU-Sim uArch: core:  3, cta: 7 initialized @(8,0)
GPGPU-Sim uArch: core:  4, cta: 7 initialized @(8,0)
GPGPU-Sim uArch: core:  5, cta: 7 initialized @(8,0)
GPGPU-Sim uArch: core:  6, cta: 7 initialized @(8,0)
GPGPU-Sim uArch: core:  7, cta: 7 initialized @(8,0)
GPGPU-Sim uArch: core:  8, cta: 7 initialized @(8,0)
GPGPU-Sim uArch: core:  9, cta: 7 initialized @(8,0)
GPGPU-Sim uArch: core: 10, cta: 7 initialized @(8,0)
GPGPU-Sim uArch: core: 11, cta: 7 initialized @(8,0)
GPGPU-Sim uArch: core: 12, cta: 7 initialized @(8,0)
GPGPU-Sim uArch: core: 13, cta: 7 initialized @(8,0)
GPGPU-Sim uArch: core: 14, cta: 7 initialized @(8,0)
GPGPU-Sim uArch: core:  0, cta: 7 initialized @(8,0)
GPGPU-Sim PTX: 100000 instructions simulated : ctaid=(27,0,0) tid=(95,0,0)
GPGPU-Sim uArch: cycles simulated: 500  inst.: 92160 (ipc=184.3) sim_rate=23040 (inst/sec) elapsed = 0:0:00:04 / Fri Mar  4 03:51:57 2016
GPGPU-Sim PTX: 200000 instructions simulated : ctaid=(94,0,0) tid=(95,0,0)
GPGPU-Sim PTX: 300000 instructions simulated : ctaid=(53,0,0) tid=(127,0,0)
GPGPU-Sim PTX: 400000 instructions simulated : ctaid=(70,0,0) tid=(127,0,0)
GPGPU-Sim uArch: cycles simulated: 1500  inst.: 423072 (ipc=282.0) sim_rate=84614 (inst/sec) elapsed = 0:0:00:05 / Fri Mar  4 03:51:58 2016
GPGPU-Sim PTX: 500000 instructions simulated : ctaid=(85,0,0) tid=(127,0,0)
GPGPU-Sim PTX: 600000 instructions simulated : ctaid=(117,0,0) tid=(31,0,0)
GPGPU-Sim uArch: cycles simulated: 2500  inst.: 582688 (ipc=233.1) sim_rate=97114 (inst/sec) elapsed = 0:0:00:06 / Fri Mar  4 03:51:59 2016
GPGPU-Sim PTX: 700000 instructions simulated : ctaid=(10,0,0) tid=(127,0,0)
GPGPU-Sim PTX: 800000 instructions simulated : ctaid=(81,0,0) tid=(95,0,0)
GPGPU-Sim uArch: cycles simulated: 3000  inst.: 854976 (ipc=285.0) sim_rate=122139 (inst/sec) elapsed = 0:0:00:07 / Fri Mar  4 03:52:00 2016
GPGPU-Sim PTX: 900000 instructions simulated : ctaid=(0,0,0) tid=(63,0,0)
GPGPU-Sim PTX: 1000000 instructions simulated : ctaid=(46,0,0) tid=(95,0,0)
GPGPU-Sim PTX: 1100000 instructions simulated : ctaid=(60,0,0) tid=(31,0,0)
GPGPU-Sim PTX: 1200000 instructions simulated : ctaid=(56,0,0) tid=(127,0,0)
GPGPU-Sim PTX: 1300000 instructions simulated : ctaid=(28,0,0) tid=(127,0,0)
GPGPU-Sim PTX: 1400000 instructions simulated : ctaid=(53,0,0) tid=(127,0,0)
GPGPU-Sim uArch: cycles simulated: 4000  inst.: 1463808 (ipc=366.0) sim_rate=182976 (inst/sec) elapsed = 0:0:00:08 / Fri Mar  4 03:52:01 2016
GPGPU-Sim PTX: 1500000 instructions simulated : ctaid=(9,0,0) tid=(127,0,0)
GPGPU-Sim PTX: 1600000 instructions simulated : ctaid=(30,0,0) tid=(63,0,0)
GPGPU-Sim PTX: 1700000 instructions simulated : ctaid=(117,0,0) tid=(95,0,0)
GPGPU-Sim PTX: 1800000 instructions simulated : ctaid=(111,0,0) tid=(63,0,0)
GPGPU-Sim uArch: cycles simulated: 4500  inst.: 1781408 (ipc=395.9) sim_rate=197934 (inst/sec) elapsed = 0:0:00:09 / Fri Mar  4 03:52:02 2016
GPGPU-Sim uArch: cycles simulated: 5000  inst.: 1830464 (ipc=366.1) sim_rate=183046 (inst/sec) elapsed = 0:0:00:10 / Fri Mar  4 03:52:03 2016
GPGPU-Sim PTX: 1900000 instructions simulated : ctaid=(14,0,0) tid=(95,0,0)
GPGPU-Sim PTX: 2000000 instructions simulated : ctaid=(115,0,0) tid=(31,0,0)
GPGPU-Sim PTX: 2100000 instructions simulated : ctaid=(88,0,0) tid=(127,0,0)
GPGPU-Sim uArch: cycles simulated: 6000  inst.: 2134976 (ipc=355.8) sim_rate=194088 (inst/sec) elapsed = 0:0:00:11 / Fri Mar  4 03:52:04 2016
GPGPU-Sim PTX: 2200000 instructions simulated : ctaid=(12,0,0) tid=(63,0,0)
GPGPU-Sim PTX: 2300000 instructions simulated : ctaid=(53,0,0) tid=(31,0,0)
GPGPU-Sim PTX: 2400000 instructions simulated : ctaid=(18,0,0) tid=(31,0,0)
GPGPU-Sim PTX: 2500000 instructions simulated : ctaid=(66,0,0) tid=(31,0,0)
GPGPU-Sim uArch: cycles simulated: 6500  inst.: 2480096 (ipc=381.6) sim_rate=206674 (inst/sec) elapsed = 0:0:00:12 / Fri Mar  4 03:52:05 2016
GPGPU-Sim PTX: 2600000 instructions simulated : ctaid=(28,0,0) tid=(127,0,0)
GPGPU-Sim PTX: 2700000 instructions simulated : ctaid=(57,0,0) tid=(63,0,0)
GPGPU-Sim PTX: 2800000 instructions simulated : ctaid=(51,0,0) tid=(63,0,0)
GPGPU-Sim uArch: cycles simulated: 7000  inst.: 2794176 (ipc=399.2) sim_rate=214936 (inst/sec) elapsed = 0:0:00:13 / Fri Mar  4 03:52:06 2016
GPGPU-Sim PTX: 2900000 instructions simulated : ctaid=(56,0,0) tid=(127,0,0)
GPGPU-Sim PTX: 3000000 instructions simulated : ctaid=(58,0,0) tid=(127,0,0)
GPGPU-Sim PTX: 3100000 instructions simulated : ctaid=(66,0,0) tid=(63,0,0)
GPGPU-Sim uArch: cycles simulated: 7500  inst.: 3080768 (ipc=410.8) sim_rate=220054 (inst/sec) elapsed = 0:0:00:14 / Fri Mar  4 03:52:07 2016
GPGPU-Sim PTX: 3200000 instructions simulated : ctaid=(92,0,0) tid=(63,0,0)
GPGPU-Sim PTX: 3300000 instructions simulated : ctaid=(37,0,0) tid=(95,0,0)
GPGPU-Sim PTX: 3400000 instructions simulated : ctaid=(39,0,0) tid=(31,0,0)
GPGPU-Sim PTX: 3500000 instructions simulated : ctaid=(14,0,0) tid=(95,0,0)
GPGPU-Sim uArch: cycles simulated: 8500  inst.: 3513152 (ipc=413.3) sim_rate=234210 (inst/sec) elapsed = 0:0:00:15 / Fri Mar  4 03:52:08 2016
GPGPU-Sim PTX: 3600000 instructions simulated : ctaid=(74,0,0) tid=(31,0,0)
GPGPU-Sim PTX: 3700000 instructions simulated : ctaid=(88,0,0) tid=(31,0,0)
GPGPU-Sim PTX: 3800000 instructions simulated : ctaid=(84,0,0) tid=(95,0,0)
GPGPU-Sim uArch: cycles simulated: 9000  inst.: 3767264 (ipc=418.6) sim_rate=235454 (inst/sec) elapsed = 0:0:00:16 / Fri Mar  4 03:52:09 2016
GPGPU-Sim PTX: 3900000 instructions simulated : ctaid=(18,0,0) tid=(63,0,0)
GPGPU-Sim PTX: 4000000 instructions simulated : ctaid=(76,0,0) tid=(31,0,0)
GPGPU-Sim uArch: cycles simulated: 9500  inst.: 3978784 (ipc=418.8) sim_rate=234046 (inst/sec) elapsed = 0:0:00:17 / Fri Mar  4 03:52:10 2016
GPGPU-Sim PTX: 4100000 instructions simulated : ctaid=(52,0,0) tid=(63,0,0)
GPGPU-Sim PTX: 4200000 instructions simulated : ctaid=(33,0,0) tid=(127,0,0)
GPGPU-Sim uArch: cycles simulated: 10000  inst.: 4242176 (ipc=424.2) sim_rate=235676 (inst/sec) elapsed = 0:0:00:18 / Fri Mar  4 03:52:11 2016
GPGPU-Sim PTX: 4300000 instructions simulated : ctaid=(14,0,0) tid=(63,0,0)
GPGPU-Sim PTX: 4400000 instructions simulated : ctaid=(1,0,0) tid=(95,0,0)
GPGPU-Sim PTX: 4500000 instructions simulated : ctaid=(95,0,0) tid=(95,0,0)
GPGPU-Sim PTX: 4600000 instructions simulated : ctaid=(35,0,0) tid=(127,0,0)
GPGPU-Sim PTX: 4700000 instructions simulated : ctaid=(49,0,0) tid=(31,0,0)
GPGPU-Sim uArch: cycles simulated: 11000  inst.: 4741216 (ipc=431.0) sim_rate=249537 (inst/sec) elapsed = 0:0:00:19 / Fri Mar  4 03:52:12 2016
GPGPU-Sim PTX: 4800000 instructions simulated : ctaid=(21,0,0) tid=(127,0,0)
GPGPU-Sim PTX: 4900000 instructions simulated : ctaid=(67,0,0) tid=(95,0,0)
GPGPU-Sim PTX: 5000000 instructions simulated : ctaid=(30,0,0) tid=(127,0,0)
GPGPU-Sim uArch: cycles simulated: 11500  inst.: 5014688 (ipc=436.1) sim_rate=250734 (inst/sec) elapsed = 0:0:00:20 / Fri Mar  4 03:52:13 2016
GPGPU-Sim PTX: 5100000 instructions simulated : ctaid=(52,0,0) tid=(127,0,0)
GPGPU-Sim PTX: 5200000 instructions simulated : ctaid=(38,0,0) tid=(31,0,0)
GPGPU-Sim uArch: cycles simulated: 12000  inst.: 5235776 (ipc=436.3) sim_rate=249322 (inst/sec) elapsed = 0:0:00:21 / Fri Mar  4 03:52:14 2016
GPGPU-Sim PTX: 5300000 instructions simulated : ctaid=(75,0,0) tid=(63,0,0)
GPGPU-Sim PTX: 5400000 instructions simulated : ctaid=(7,0,0) tid=(127,0,0)
GPGPU-Sim PTX: 5500000 instructions simulated : ctaid=(71,0,0) tid=(127,0,0)
GPGPU-Sim uArch: cycles simulated: 12500  inst.: 5522304 (ipc=441.8) sim_rate=251013 (inst/sec) elapsed = 0:0:00:22 / Fri Mar  4 03:52:15 2016
GPGPU-Sim PTX: 5600000 instructions simulated : ctaid=(43,0,0) tid=(127,0,0)
GPGPU-Sim PTX: 5700000 instructions simulated : ctaid=(4,0,0) tid=(127,0,0)
GPGPU-Sim PTX: 5800000 instructions simulated : ctaid=(7,0,0) tid=(31,0,0)
GPGPU-Sim uArch: cycles simulated: 13000  inst.: 5774272 (ipc=444.2) sim_rate=251055 (inst/sec) elapsed = 0:0:00:23 / Fri Mar  4 03:52:16 2016
GPGPU-Sim PTX: 5900000 instructions simulated : ctaid=(44,0,0) tid=(127,0,0)
GPGPU-Sim PTX: 6000000 instructions simulated : ctaid=(74,0,0) tid=(63,0,0)
GPGPU-Sim PTX: 6100000 instructions simulated : ctaid=(60,0,0) tid=(31,0,0)
GPGPU-Sim PTX: 6200000 instructions simulated : ctaid=(53,0,0) tid=(127,0,0)
GPGPU-Sim PTX: 6300000 instructions simulated : ctaid=(62,0,0) tid=(95,0,0)
GPGPU-Sim uArch: cycles simulated: 14000  inst.: 6297792 (ipc=449.8) sim_rate=262408 (inst/sec) elapsed = 0:0:00:24 / Fri Mar  4 03:52:17 2016
GPGPU-Sim PTX: 6400000 instructions simulated : ctaid=(82,0,0) tid=(31,0,0)
GPGPU-Sim PTX: 6500000 instructions simulated : ctaid=(30,0,0) tid=(95,0,0)
GPGPU-Sim uArch: cycles simulated: 14500  inst.: 6556288 (ipc=452.2) sim_rate=262251 (inst/sec) elapsed = 0:0:00:25 / Fri Mar  4 03:52:18 2016
GPGPU-Sim PTX: 6600000 instructions simulated : ctaid=(115,0,0) tid=(31,0,0)
GPGPU-Sim PTX: 6700000 instructions simulated : ctaid=(37,0,0) tid=(63,0,0)
GPGPU-Sim PTX: 6800000 instructions simulated : ctaid=(8,0,0) tid=(95,0,0)
GPGPU-Sim uArch: cycles simulated: 15000  inst.: 6809920 (ipc=454.0) sim_rate=261920 (inst/sec) elapsed = 0:0:00:26 / Fri Mar  4 03:52:19 2016
GPGPU-Sim PTX: 6900000 instructions simulated : ctaid=(25,0,0) tid=(63,0,0)
GPGPU-Sim PTX: 7000000 instructions simulated : ctaid=(76,0,0) tid=(31,0,0)
GPGPU-Sim PTX: 7100000 instructions simulated : ctaid=(51,0,0) tid=(31,0,0)
GPGPU-Sim uArch: cycles simulated: 15500  inst.: 7065408 (ipc=455.8) sim_rate=261681 (inst/sec) elapsed = 0:0:00:27 / Fri Mar  4 03:52:20 2016
GPGPU-Sim PTX: 7200000 instructions simulated : ctaid=(33,0,0) tid=(95,0,0)
GPGPU-Sim PTX: 7300000 instructions simulated : ctaid=(44,0,0) tid=(31,0,0)
GPGPU-Sim PTX: 7400000 instructions simulated : ctaid=(18,0,0) tid=(31,0,0)
GPGPU-Sim PTX: 7500000 instructions simulated : ctaid=(36,0,0) tid=(31,0,0)
GPGPU-Sim PTX: 7600000 instructions simulated : ctaid=(41,0,0) tid=(63,0,0)
GPGPU-Sim uArch: cycles simulated: 16500  inst.: 7589888 (ipc=460.0) sim_rate=271067 (inst/sec) elapsed = 0:0:00:28 / Fri Mar  4 03:52:21 2016
GPGPU-Sim PTX: 7700000 instructions simulated : ctaid=(72,0,0) tid=(127,0,0)
GPGPU-Sim PTX: 7800000 instructions simulated : ctaid=(31,0,0) tid=(31,0,0)
GPGPU-Sim uArch: cycles simulated: 17000  inst.: 7851520 (ipc=461.9) sim_rate=270742 (inst/sec) elapsed = 0:0:00:29 / Fri Mar  4 03:52:22 2016
GPGPU-Sim PTX: 7900000 instructions simulated : ctaid=(33,0,0) tid=(127,0,0)
GPGPU-Sim PTX: 8000000 instructions simulated : ctaid=(79,0,0) tid=(95,0,0)
GPGPU-Sim PTX: 8100000 instructions simulated : ctaid=(106,0,0) tid=(95,0,0)
GPGPU-Sim uArch: cycles simulated: 17500  inst.: 8139712 (ipc=465.1) sim_rate=271323 (inst/sec) elapsed = 0:0:00:30 / Fri Mar  4 03:52:23 2016
GPGPU-Sim PTX: 8200000 instructions simulated : ctaid=(45,0,0) tid=(31,0,0)
GPGPU-Sim PTX: 8300000 instructions simulated : ctaid=(68,0,0) tid=(127,0,0)
GPGPU-Sim PTX: 8400000 instructions simulated : ctaid=(18,0,0) tid=(95,0,0)
GPGPU-Sim uArch: cycles simulated: 18000  inst.: 8390944 (ipc=466.2) sim_rate=270675 (inst/sec) elapsed = 0:0:00:31 / Fri Mar  4 03:52:24 2016
GPGPU-Sim PTX: 8500000 instructions simulated : ctaid=(37,0,0) tid=(63,0,0)
GPGPU-Sim PTX: 8600000 instructions simulated : ctaid=(96,0,0) tid=(63,0,0)
GPGPU-Sim uArch: cycles simulated: 18500  inst.: 8655744 (ipc=467.9) sim_rate=270492 (inst/sec) elapsed = 0:0:00:32 / Fri Mar  4 03:52:25 2016
GPGPU-Sim PTX: 8700000 instructions simulated : ctaid=(116,0,0) tid=(63,0,0)
GPGPU-Sim PTX: 8800000 instructions simulated : ctaid=(78,0,0) tid=(63,0,0)
GPGPU-Sim PTX: 8900000 instructions simulated : ctaid=(20,0,0) tid=(31,0,0)
GPGPU-Sim PTX: 9000000 instructions simulated : ctaid=(10,0,0) tid=(63,0,0)
GPGPU-Sim PTX: 9100000 instructions simulated : ctaid=(14,0,0) tid=(127,0,0)
GPGPU-Sim PTX: 9200000 instructions simulated : ctaid=(6,0,0) tid=(95,0,0)
GPGPU-Sim uArch: cycles simulated: 19500  inst.: 9172288 (ipc=470.4) sim_rate=277948 (inst/sec) elapsed = 0:0:00:33 / Fri Mar  4 03:52:26 2016
GPGPU-Sim PTX: 9300000 instructions simulated : ctaid=(7,0,0) tid=(31,0,0)
GPGPU-Sim PTX: 9400000 instructions simulated : ctaid=(18,0,0) tid=(31,0,0)
GPGPU-Sim uArch: cycles simulated: 20000  inst.: 9407008 (ipc=470.4) sim_rate=276676 (inst/sec) elapsed = 0:0:00:34 / Fri Mar  4 03:52:27 2016
GPGPU-Sim PTX: 9500000 instructions simulated : ctaid=(26,0,0) tid=(63,0,0)
GPGPU-Sim PTX: 9600000 instructions simulated : ctaid=(32,0,0) tid=(95,0,0)
GPGPU-Sim PTX: 9700000 instructions simulated : ctaid=(83,0,0) tid=(95,0,0)
GPGPU-Sim uArch: cycles simulated: 20500  inst.: 9670816 (ipc=471.7) sim_rate=276309 (inst/sec) elapsed = 0:0:00:35 / Fri Mar  4 03:52:28 2016
GPGPU-Sim PTX: 9800000 instructions simulated : ctaid=(35,0,0) tid=(127,0,0)
GPGPU-Sim PTX: 9900000 instructions simulated : ctaid=(41,0,0) tid=(95,0,0)
GPGPU-Sim uArch: cycles simulated: 21000  inst.: 9914176 (ipc=472.1) sim_rate=275393 (inst/sec) elapsed = 0:0:00:36 / Fri Mar  4 03:52:29 2016
GPGPU-Sim PTX: 10000000 instructions simulated : ctaid=(45,0,0) tid=(31,0,0)
GPGPU-Sim PTX: 10100000 instructions simulated : ctaid=(85,0,0) tid=(31,0,0)
GPGPU-Sim PTX: 10200000 instructions simulated : ctaid=(7,0,0) tid=(63,0,0)
GPGPU-Sim PTX: 10300000 instructions simulated : ctaid=(25,0,0) tid=(127,0,0)
GPGPU-Sim PTX: 10400000 instructions simulated : ctaid=(22,0,0) tid=(31,0,0)
GPGPU-Sim uArch: cycles simulated: 22000  inst.: 10406176 (ipc=473.0) sim_rate=281248 (inst/sec) elapsed = 0:0:00:37 / Fri Mar  4 03:52:30 2016
GPGPU-Sim PTX: 10500000 instructions simulated : ctaid=(83,0,0) tid=(31,0,0)
GPGPU-Sim PTX: 10600000 instructions simulated : ctaid=(53,0,0) tid=(95,0,0)
GPGPU-Sim uArch: cycles simulated: 22500  inst.: 10647552 (ipc=473.2) sim_rate=280198 (inst/sec) elapsed = 0:0:00:38 / Fri Mar  4 03:52:31 2016
GPGPU-Sim PTX: 10700000 instructions simulated : ctaid=(80,0,0) tid=(95,0,0)
GPGPU-Sim PTX: 10800000 instructions simulated : ctaid=(21,0,0) tid=(63,0,0)
GPGPU-Sim PTX: 10900000 instructions simulated : ctaid=(37,0,0) tid=(31,0,0)
GPGPU-Sim uArch: cycles simulated: 23000  inst.: 10898080 (ipc=473.8) sim_rate=279437 (inst/sec) elapsed = 0:0:00:39 / Fri Mar  4 03:52:32 2016
GPGPU-Sim PTX: 11000000 instructions simulated : ctaid=(99,0,0) tid=(95,0,0)
GPGPU-Sim PTX: 11100000 instructions simulated : ctaid=(61,0,0) tid=(63,0,0)
GPGPU-Sim uArch: cycles simulated: 23500  inst.: 11161120 (ipc=474.9) sim_rate=279028 (inst/sec) elapsed = 0:0:00:40 / Fri Mar  4 03:52:33 2016
GPGPU-Sim PTX: 11200000 instructions simulated : ctaid=(94,0,0) tid=(95,0,0)
GPGPU-Sim PTX: 11300000 instructions simulated : ctaid=(50,0,0) tid=(95,0,0)
GPGPU-Sim PTX: 11400000 instructions simulated : ctaid=(20,0,0) tid=(63,0,0)
GPGPU-Sim PTX: 11500000 instructions simulated : ctaid=(81,0,0) tid=(31,0,0)
GPGPU-Sim PTX: 11600000 instructions simulated : ctaid=(67,0,0) tid=(63,0,0)
GPGPU-Sim uArch: cycles simulated: 24500  inst.: 11660672 (ipc=475.9) sim_rate=284406 (inst/sec) elapsed = 0:0:00:41 / Fri Mar  4 03:52:34 2016
GPGPU-Sim PTX: 11700000 instructions simulated : ctaid=(51,0,0) tid=(127,0,0)
GPGPU-Sim PTX: 11800000 instructions simulated : ctaid=(85,0,0) tid=(95,0,0)
GPGPU-Sim PTX: 11900000 instructions simulated : ctaid=(104,0,0) tid=(95,0,0)
GPGPU-Sim uArch: cycles simulated: 25000  inst.: 11918112 (ipc=476.7) sim_rate=283764 (inst/sec) elapsed = 0:0:00:42 / Fri Mar  4 03:52:35 2016
GPGPU-Sim PTX: 12000000 instructions simulated : ctaid=(30,0,0) tid=(95,0,0)
GPGPU-Sim PTX: 12100000 instructions simulated : ctaid=(75,0,0) tid=(127,0,0)
GPGPU-Sim PTX: 12200000 instructions simulated : ctaid=(17,0,0) tid=(95,0,0)
GPGPU-Sim uArch: cycles simulated: 25500  inst.: 12167744 (ipc=477.2) sim_rate=282970 (inst/sec) elapsed = 0:0:00:43 / Fri Mar  4 03:52:36 2016
GPGPU-Sim PTX: 12300000 instructions simulated : ctaid=(87,0,0) tid=(31,0,0)
GPGPU-Sim PTX: 12400000 instructions simulated : ctaid=(4,0,0) tid=(95,0,0)
GPGPU-Sim uArch: cycles simulated: 26000  inst.: 12414368 (ipc=477.5) sim_rate=282144 (inst/sec) elapsed = 0:0:00:44 / Fri Mar  4 03:52:37 2016
GPGPU-Sim PTX: 12500000 instructions simulated : ctaid=(26,0,0) tid=(127,0,0)
GPGPU-Sim PTX: 12600000 instructions simulated : ctaid=(77,0,0) tid=(31,0,0)
GPGPU-Sim PTX: 12700000 instructions simulated : ctaid=(85,0,0) tid=(31,0,0)
GPGPU-Sim PTX: 12800000 instructions simulated : ctaid=(5,0,0) tid=(95,0,0)
GPGPU-Sim PTX: 12900000 instructions simulated : ctaid=(69,0,0) tid=(95,0,0)
GPGPU-Sim uArch: cycles simulated: 27000  inst.: 12904096 (ipc=477.9) sim_rate=286757 (inst/sec) elapsed = 0:0:00:45 / Fri Mar  4 03:52:38 2016
GPGPU-Sim PTX: 13000000 instructions simulated : ctaid=(114,0,0) tid=(31,0,0)
GPGPU-Sim PTX: 13100000 instructions simulated : ctaid=(22,0,0) tid=(95,0,0)
GPGPU-Sim uArch: cycles simulated: 27500  inst.: 13156192 (ipc=478.4) sim_rate=286004 (inst/sec) elapsed = 0:0:00:46 / Fri Mar  4 03:52:39 2016
GPGPU-Sim PTX: 13200000 instructions simulated : ctaid=(69,0,0) tid=(63,0,0)
GPGPU-Sim PTX: 13300000 instructions simulated : ctaid=(70,0,0) tid=(63,0,0)
GPGPU-Sim PTX: 13400000 instructions simulated : ctaid=(65,0,0) tid=(63,0,0)
GPGPU-Sim uArch: cycles simulated: 28000  inst.: 13395776 (ipc=478.4) sim_rate=285016 (inst/sec) elapsed = 0:0:00:47 / Fri Mar  4 03:52:40 2016
GPGPU-Sim PTX: 13500000 instructions simulated : ctaid=(12,0,0) tid=(63,0,0)
GPGPU-Sim PTX: 13600000 instructions simulated : ctaid=(4,0,0) tid=(63,0,0)
GPGPU-Sim uArch: cycles simulated: 28500  inst.: 13655840 (ipc=479.2) sim_rate=284496 (inst/sec) elapsed = 0:0:00:48 / Fri Mar  4 03:52:41 2016
GPGPU-Sim PTX: 13700000 instructions simulated : ctaid=(55,0,0) tid=(63,0,0)
GPGPU-Sim PTX: 13800000 instructions simulated : ctaid=(66,0,0) tid=(95,0,0)
GPGPU-Sim PTX: 13900000 instructions simulated : ctaid=(25,0,0) tid=(31,0,0)
GPGPU-Sim uArch: cycles simulated: 29000  inst.: 13909760 (ipc=479.6) sim_rate=283872 (inst/sec) elapsed = 0:0:00:49 / Fri Mar  4 03:52:42 2016
GPGPU-Sim PTX: 14000000 instructions simulated : ctaid=(88,0,0) tid=(127,0,0)
GPGPU-Sim PTX: 14100000 instructions simulated : ctaid=(38,0,0) tid=(31,0,0)
GPGPU-Sim PTX: 14200000 instructions simulated : ctaid=(47,0,0) tid=(31,0,0)
GPGPU-Sim PTX: 14300000 instructions simulated : ctaid=(6,0,0) tid=(31,0,0)
GPGPU-Sim PTX: 14400000 instructions simulated : ctaid=(43,0,0) tid=(31,0,0)
GPGPU-Sim uArch: cycles simulated: 30000  inst.: 14438176 (ipc=481.3) sim_rate=288763 (inst/sec) elapsed = 0:0:00:50 / Fri Mar  4 03:52:43 2016
GPGPU-Sim PTX: 14500000 instructions simulated : ctaid=(35,0,0) tid=(127,0,0)
GPGPU-Sim PTX: 14600000 instructions simulated : ctaid=(42,0,0) tid=(31,0,0)
GPGPU-Sim PTX: 14700000 instructions simulated : ctaid=(31,0,0) tid=(63,0,0)
GPGPU-Sim uArch: cycles simulated: 30500  inst.: 14685312 (ipc=481.5) sim_rate=287947 (inst/sec) elapsed = 0:0:00:51 / Fri Mar  4 03:52:44 2016
GPGPU-Sim PTX: 14800000 instructions simulated : ctaid=(7,0,0) tid=(63,0,0)
GPGPU-Sim PTX: 14900000 instructions simulated : ctaid=(56,0,0) tid=(31,0,0)
GPGPU-Sim uArch: cycles simulated: 31000  inst.: 14945248 (ipc=482.1) sim_rate=287408 (inst/sec) elapsed = 0:0:00:52 / Fri Mar  4 03:52:45 2016
GPGPU-Sim PTX: 15000000 instructions simulated : ctaid=(12,0,0) tid=(95,0,0)
GPGPU-Sim PTX: 15100000 instructions simulated : ctaid=(44,0,0) tid=(95,0,0)
GPGPU-Sim PTX: 15200000 instructions simulated : ctaid=(19,0,0) tid=(63,0,0)
GPGPU-Sim uArch: cycles simulated: 31500  inst.: 15170080 (ipc=481.6) sim_rate=286227 (inst/sec) elapsed = 0:0:00:53 / Fri Mar  4 03:52:46 2016
GPGPU-Sim PTX: 15300000 instructions simulated : ctaid=(32,0,0) tid=(127,0,0)
GPGPU-Sim PTX: 15400000 instructions simulated : ctaid=(64,0,0) tid=(95,0,0)
GPGPU-Sim PTX: 15500000 instructions simulated : ctaid=(68,0,0) tid=(31,0,0)
GPGPU-Sim PTX: 15600000 instructions simulated : ctaid=(72,0,0) tid=(95,0,0)
GPGPU-Sim PTX: 15700000 instructions simulated : ctaid=(73,0,0) tid=(95,0,0)
GPGPU-Sim uArch: cycles simulated: 32500  inst.: 15684960 (ipc=482.6) sim_rate=290462 (inst/sec) elapsed = 0:0:00:54 / Fri Mar  4 03:52:47 2016
GPGPU-Sim PTX: 15800000 instructions simulated : ctaid=(24,0,0) tid=(127,0,0)
GPGPU-Sim PTX: 15900000 instructions simulated : ctaid=(46,0,0) tid=(127,0,0)
GPGPU-Sim uArch: cycles simulated: 33000  inst.: 15944416 (ipc=483.2) sim_rate=289898 (inst/sec) elapsed = 0:0:00:55 / Fri Mar  4 03:52:48 2016
GPGPU-Sim PTX: 16000000 instructions simulated : ctaid=(0,0,0) tid=(31,0,0)
GPGPU-Sim PTX: 16100000 instructions simulated : ctaid=(32,0,0) tid=(31,0,0)
GPGPU-Sim PTX: 16200000 instructions simulated : ctaid=(29,0,0) tid=(127,0,0)
GPGPU-Sim uArch: cycles simulated: 33500  inst.: 16215680 (ipc=484.1) sim_rate=289565 (inst/sec) elapsed = 0:0:00:56 / Fri Mar  4 03:52:49 2016
GPGPU-Sim PTX: 16300000 instructions simulated : ctaid=(2,0,0) tid=(95,0,0)
GPGPU-Sim PTX: 16400000 instructions simulated : ctaid=(0,0,0) tid=(127,0,0)
GPGPU-Sim PTX: 16500000 instructions simulated : ctaid=(25,0,0) tid=(63,0,0)
GPGPU-Sim uArch: cycles simulated: 34000  inst.: 16467712 (ipc=484.3) sim_rate=288907 (inst/sec) elapsed = 0:0:00:57 / Fri Mar  4 03:52:50 2016
GPGPU-Sim PTX: 16600000 instructions simulated : ctaid=(81,0,0) tid=(127,0,0)
GPGPU-Sim PTX: 16700000 instructions simulated : ctaid=(3,0,0) tid=(95,0,0)
GPGPU-Sim PTX: 16800000 instructions simulated : ctaid=(49,0,0) tid=(95,0,0)
GPGPU-Sim PTX: 16900000 instructions simulated : ctaid=(7,0,0) tid=(63,0,0)
GPGPU-Sim PTX: 17000000 instructions simulated : ctaid=(7,0,0) tid=(127,0,0)
GPGPU-Sim uArch: cycles simulated: 35000  inst.: 16984672 (ipc=485.3) sim_rate=292839 (inst/sec) elapsed = 0:0:00:58 / Fri Mar  4 03:52:51 2016
GPGPU-Sim PTX: 17100000 instructions simulated : ctaid=(0,0,0) tid=(127,0,0)
GPGPU-Sim PTX: 17200000 instructions simulated : ctaid=(38,0,0) tid=(31,0,0)
GPGPU-Sim uArch: cycles simulated: 35500  inst.: 17230400 (ipc=485.4) sim_rate=292040 (inst/sec) elapsed = 0:0:00:59 / Fri Mar  4 03:52:52 2016
GPGPU-Sim PTX: 17300000 instructions simulated : ctaid=(37,0,0) tid=(95,0,0)
GPGPU-Sim PTX: 17400000 instructions simulated : ctaid=(25,0,0) tid=(127,0,0)
GPGPU-Sim PTX: 17500000 instructions simulated : ctaid=(29,0,0) tid=(127,0,0)
GPGPU-Sim uArch: cycles simulated: 36000  inst.: 17471680 (ipc=485.3) sim_rate=291194 (inst/sec) elapsed = 0:0:01:00 / Fri Mar  4 03:52:53 2016
GPGPU-Sim PTX: 17600000 instructions simulated : ctaid=(12,0,0) tid=(95,0,0)
GPGPU-Sim PTX: 17700000 instructions simulated : ctaid=(3,0,0) tid=(95,0,0)
GPGPU-Sim uArch: cycles simulated: 36500  inst.: 17718880 (ipc=485.4) sim_rate=290473 (inst/sec) elapsed = 0:0:01:01 / Fri Mar  4 03:52:54 2016
GPGPU-Sim PTX: 17800000 instructions simulated : ctaid=(12,0,0) tid=(31,0,0)
GPGPU-Sim PTX: 17900000 instructions simulated : ctaid=(8,0,0) tid=(63,0,0)
GPGPU-Sim PTX: 18000000 instructions simulated : ctaid=(93,0,0) tid=(127,0,0)
GPGPU-Sim PTX: 18100000 instructions simulated : ctaid=(50,0,0) tid=(31,0,0)
GPGPU-Sim PTX: 18200000 instructions simulated : ctaid=(21,0,0) tid=(127,0,0)
GPGPU-Sim uArch: cycles simulated: 37500  inst.: 18221536 (ipc=485.9) sim_rate=293895 (inst/sec) elapsed = 0:0:01:02 / Fri Mar  4 03:52:55 2016
GPGPU-Sim PTX: 18300000 instructions simulated : ctaid=(42,0,0) tid=(95,0,0)
GPGPU-Sim PTX: 18400000 instructions simulated : ctaid=(19,0,0) tid=(31,0,0)
GPGPU-Sim PTX: 18500000 instructions simulated : ctaid=(17,0,0) tid=(127,0,0)
GPGPU-Sim uArch: cycles simulated: 38000  inst.: 18474304 (ipc=486.2) sim_rate=293242 (inst/sec) elapsed = 0:0:01:03 / Fri Mar  4 03:52:56 2016
GPGPU-Sim PTX: 18600000 instructions simulated : ctaid=(59,0,0) tid=(127,0,0)
GPGPU-Sim PTX: 18700000 instructions simulated : ctaid=(2,0,0) tid=(95,0,0)
GPGPU-Sim uArch: cycles simulated: 38500  inst.: 18693696 (ipc=485.6) sim_rate=292089 (inst/sec) elapsed = 0:0:01:04 / Fri Mar  4 03:52:57 2016
GPGPU-Sim PTX: 18800000 instructions simulated : ctaid=(41,0,0) tid=(127,0,0)
GPGPU-Sim PTX: 18900000 instructions simulated : ctaid=(46,0,0) tid=(63,0,0)
GPGPU-Sim uArch: cycles simulated: 39000  inst.: 18941696 (ipc=485.7) sim_rate=291410 (inst/sec) elapsed = 0:0:01:05 / Fri Mar  4 03:52:58 2016
GPGPU-Sim PTX: 19000000 instructions simulated : ctaid=(44,0,0) tid=(95,0,0)
GPGPU-Sim PTX: 19100000 instructions simulated : ctaid=(45,0,0) tid=(63,0,0)
GPGPU-Sim PTX: 19200000 instructions simulated : ctaid=(17,0,0) tid=(95,0,0)
GPGPU-Sim PTX: 19300000 instructions simulated : ctaid=(54,0,0) tid=(63,0,0)
GPGPU-Sim PTX: 19400000 instructions simulated : ctaid=(85,0,0) tid=(31,0,0)
GPGPU-Sim uArch: cycles simulated: 40000  inst.: 19450176 (ipc=486.3) sim_rate=294699 (inst/sec) elapsed = 0:0:01:06 / Fri Mar  4 03:52:59 2016
GPGPU-Sim PTX: 19500000 instructions simulated : ctaid=(42,0,0) tid=(95,0,0)
GPGPU-Sim PTX: 19600000 instructions simulated : ctaid=(8,0,0) tid=(31,0,0)
GPGPU-Sim PTX: 19700000 instructions simulated : ctaid=(72,0,0) tid=(95,0,0)
GPGPU-Sim uArch: cycles simulated: 40500  inst.: 19712544 (ipc=486.7) sim_rate=294217 (inst/sec) elapsed = 0:0:01:07 / Fri Mar  4 03:53:00 2016
GPGPU-Sim PTX: 19800000 instructions simulated : ctaid=(8,0,0) tid=(63,0,0)
GPGPU-Sim PTX: 19900000 instructions simulated : ctaid=(24,0,0) tid=(31,0,0)
GPGPU-Sim PTX: 20000000 instructions simulated : ctaid=(24,0,0) tid=(63,0,0)
GPGPU-Sim uArch: cycles simulated: 41000  inst.: 19968032 (ipc=487.0) sim_rate=293647 (inst/sec) elapsed = 0:0:01:08 / Fri Mar  4 03:53:01 2016
GPGPU-Sim PTX: 20100000 instructions simulated : ctaid=(44,0,0) tid=(127,0,0)
GPGPU-Sim PTX: 20200000 instructions simulated : ctaid=(28,0,0) tid=(63,0,0)
GPGPU-Sim uArch: cycles simulated: 41500  inst.: 20205920 (ipc=486.9) sim_rate=292839 (inst/sec) elapsed = 0:0:01:09 / Fri Mar  4 03:53:02 2016
GPGPU-Sim PTX: 20300000 instructions simulated : ctaid=(54,0,0) tid=(127,0,0)
GPGPU-Sim PTX: 20400000 instructions simulated : ctaid=(62,0,0) tid=(63,0,0)
GPGPU-Sim uArch: cycles simulated: 42000  inst.: 20461024 (ipc=487.2) sim_rate=292300 (inst/sec) elapsed = 0:0:01:10 / Fri Mar  4 03:53:03 2016
GPGPU-Sim PTX: 20500000 instructions simulated : ctaid=(76,0,0) tid=(95,0,0)
GPGPU-Sim PTX: 20600000 instructions simulated : ctaid=(68,0,0) tid=(95,0,0)
GPGPU-Sim PTX: 20700000 instructions simulated : ctaid=(1,0,0) tid=(31,0,0)
GPGPU-Sim PTX: 20800000 instructions simulated : ctaid=(62,0,0) tid=(127,0,0)
GPGPU-Sim PTX: 20900000 instructions simulated : ctaid=(12,0,0) tid=(95,0,0)
GPGPU-Sim uArch: cycles simulated: 43000  inst.: 20956512 (ipc=487.4) sim_rate=295162 (inst/sec) elapsed = 0:0:01:11 / Fri Mar  4 03:53:04 2016
GPGPU-Sim PTX: 21000000 instructions simulated : ctaid=(43,0,0) tid=(95,0,0)
GPGPU-Sim PTX: 21100000 instructions simulated : ctaid=(50,0,0) tid=(127,0,0)
GPGPU-Sim PTX: 21200000 instructions simulated : ctaid=(87,0,0) tid=(127,0,0)
GPGPU-Sim uArch: cycles simulated: 43500  inst.: 21210272 (ipc=487.6) sim_rate=294587 (inst/sec) elapsed = 0:0:01:12 / Fri Mar  4 03:53:05 2016
GPGPU-Sim PTX: 21300000 instructions simulated : ctaid=(48,0,0) tid=(63,0,0)
GPGPU-Sim PTX: 21400000 instructions simulated : ctaid=(100,0,0) tid=(31,0,0)
GPGPU-Sim uArch: cycles simulated: 44000  inst.: 21461536 (ipc=487.8) sim_rate=293993 (inst/sec) elapsed = 0:0:01:13 / Fri Mar  4 03:53:06 2016
GPGPU-Sim PTX: 21500000 instructions simulated : ctaid=(104,0,0) tid=(95,0,0)
GPGPU-Sim PTX: 21600000 instructions simulated : ctaid=(101,0,0) tid=(127,0,0)
GPGPU-Sim PTX: 21700000 instructions simulated : ctaid=(40,0,0) tid=(63,0,0)
GPGPU-Sim uArch: cycles simulated: 44500  inst.: 21730784 (ipc=488.3) sim_rate=293659 (inst/sec) elapsed = 0:0:01:14 / Fri Mar  4 03:53:07 2016
GPGPU-Sim PTX: 21800000 instructions simulated : ctaid=(4,0,0) tid=(127,0,0)
GPGPU-Sim PTX: 21900000 instructions simulated : ctaid=(16,0,0) tid=(63,0,0)
GPGPU-Sim PTX: 22000000 instructions simulated : ctaid=(6,0,0) tid=(63,0,0)
GPGPU-Sim PTX: 22100000 instructions simulated : ctaid=(26,0,0) tid=(127,0,0)
GPGPU-Sim PTX: 22200000 instructions simulated : ctaid=(100,0,0) tid=(63,0,0)
GPGPU-Sim uArch: cycles simulated: 45500  inst.: 22235552 (ipc=488.7) sim_rate=296474 (inst/sec) elapsed = 0:0:01:15 / Fri Mar  4 03:53:08 2016
GPGPU-Sim PTX: 22300000 instructions simulated : ctaid=(38,0,0) tid=(95,0,0)
GPGPU-Sim PTX: 22400000 instructions simulated : ctaid=(26,0,0) tid=(63,0,0)
GPGPU-Sim PTX: 22500000 instructions simulated : ctaid=(5,0,0) tid=(127,0,0)
GPGPU-Sim uArch: cycles simulated: 46000  inst.: 22479360 (ipc=488.7) sim_rate=295781 (inst/sec) elapsed = 0:0:01:16 / Fri Mar  4 03:53:09 2016
GPGPU-Sim PTX: 22600000 instructions simulated : ctaid=(66,0,0) tid=(63,0,0)
GPGPU-Sim PTX: 22700000 instructions simulated : ctaid=(100,0,0) tid=(95,0,0)
GPGPU-Sim uArch: cycles simulated: 46500  inst.: 22741056 (ipc=489.1) sim_rate=295338 (inst/sec) elapsed = 0:0:01:17 / Fri Mar  4 03:53:10 2016
GPGPU-Sim PTX: 22800000 instructions simulated : ctaid=(1,0,0) tid=(127,0,0)
GPGPU-Sim PTX: 22900000 instructions simulated : ctaid=(54,0,0) tid=(95,0,0)
GPGPU-Sim PTX: 23000000 instructions simulated : ctaid=(61,0,0) tid=(63,0,0)
GPGPU-Sim uArch: cycles simulated: 47000  inst.: 23004896 (ipc=489.5) sim_rate=294934 (inst/sec) elapsed = 0:0:01:18 / Fri Mar  4 03:53:11 2016
GPGPU-Sim PTX: 23100000 instructions simulated : ctaid=(14,0,0) tid=(95,0,0)
GPGPU-Sim PTX: 23200000 instructions simulated : ctaid=(73,0,0) tid=(127,0,0)
GPGPU-Sim PTX: 23300000 instructions simulated : ctaid=(17,0,0) tid=(31,0,0)
GPGPU-Sim uArch: cycles simulated: 47500  inst.: 23285888 (ipc=490.2) sim_rate=294758 (inst/sec) elapsed = 0:0:01:19 / Fri Mar  4 03:53:12 2016
GPGPU-Sim PTX: 23400000 instructions simulated : ctaid=(1,0,0) tid=(31,0,0)
GPGPU-Sim PTX: 23500000 instructions simulated : ctaid=(85,0,0) tid=(127,0,0)
GPGPU-Sim PTX: 23600000 instructions simulated : ctaid=(4,0,0) tid=(127,0,0)
GPGPU-Sim PTX: 23700000 instructions simulated : ctaid=(42,0,0) tid=(127,0,0)
GPGPU-Sim PTX: 23800000 instructions simulated : ctaid=(57,0,0) tid=(31,0,0)
GPGPU-Sim uArch: cycles simulated: 48500  inst.: 23793120 (ipc=490.6) sim_rate=297414 (inst/sec) elapsed = 0:0:01:20 / Fri Mar  4 03:53:13 2016
GPGPU-Sim PTX: 23900000 instructions simulated : ctaid=(26,0,0) tid=(31,0,0)
GPGPU-Sim PTX: 24000000 instructions simulated : ctaid=(108,0,0) tid=(63,0,0)
GPGPU-Sim uArch: cycles simulated: 49000  inst.: 24026112 (ipc=490.3) sim_rate=296618 (inst/sec) elapsed = 0:0:01:21 / Fri Mar  4 03:53:14 2016
GPGPU-Sim PTX: 24100000 instructions simulated : ctaid=(56,0,0) tid=(31,0,0)
GPGPU-Sim PTX: 24200000 instructions simulated : ctaid=(73,0,0) tid=(31,0,0)
GPGPU-Sim PTX: 24300000 instructions simulated : ctaid=(79,0,0) tid=(95,0,0)
GPGPU-Sim uArch: cycles simulated: 49500  inst.: 24274080 (ipc=490.4) sim_rate=296025 (inst/sec) elapsed = 0:0:01:22 / Fri Mar  4 03:53:15 2016
GPGPU-Sim PTX: 24400000 instructions simulated : ctaid=(60,0,0) tid=(63,0,0)
GPGPU-Sim PTX: 24500000 instructions simulated : ctaid=(25,0,0) tid=(63,0,0)
GPGPU-Sim uArch: cycles simulated: 50000  inst.: 24521248 (ipc=490.4) sim_rate=295436 (inst/sec) elapsed = 0:0:01:23 / Fri Mar  4 03:53:16 2016
GPGPU-Sim PTX: 24600000 instructions simulated : ctaid=(21,0,0) tid=(31,0,0)
GPGPU-Sim PTX: 24700000 instructions simulated : ctaid=(37,0,0) tid=(127,0,0)
GPGPU-Sim PTX: 24800000 instructions simulated : ctaid=(53,0,0) tid=(127,0,0)
GPGPU-Sim PTX: 24900000 instructions simulated : ctaid=(51,0,0) tid=(31,0,0)
GPGPU-Sim PTX: 25000000 instructions simulated : ctaid=(0,0,0) tid=(95,0,0)
GPGPU-Sim uArch: cycles simulated: 51000  inst.: 25024736 (ipc=490.7) sim_rate=297913 (inst/sec) elapsed = 0:0:01:24 / Fri Mar  4 03:53:17 2016
GPGPU-Sim PTX: 25100000 instructions simulated : ctaid=(7,0,0) tid=(127,0,0)
GPGPU-Sim PTX: 25200000 instructions simulated : ctaid=(29,0,0) tid=(95,0,0)
GPGPU-Sim PTX: 25300000 instructions simulated : ctaid=(22,0,0) tid=(95,0,0)
GPGPU-Sim uArch: cycles simulated: 51500  inst.: 25284160 (ipc=491.0) sim_rate=297460 (inst/sec) elapsed = 0:0:01:25 / Fri Mar  4 03:53:18 2016
GPGPU-Sim PTX: 25400000 instructions simulated : ctaid=(26,0,0) tid=(63,0,0)
GPGPU-Sim PTX: 25500000 instructions simulated : ctaid=(28,0,0) tid=(127,0,0)
GPGPU-Sim uArch: cycles simulated: 52000  inst.: 25532768 (ipc=491.0) sim_rate=296892 (inst/sec) elapsed = 0:0:01:26 / Fri Mar  4 03:53:19 2016
GPGPU-Sim PTX: 25600000 instructions simulated : ctaid=(21,0,0) tid=(127,0,0)
GPGPU-Sim PTX: 25700000 instructions simulated : ctaid=(80,0,0) tid=(31,0,0)
GPGPU-Sim PTX: 25800000 instructions simulated : ctaid=(23,0,0) tid=(63,0,0)
GPGPU-Sim uArch: cycles simulated: 52500  inst.: 25786400 (ipc=491.2) sim_rate=296395 (inst/sec) elapsed = 0:0:01:27 / Fri Mar  4 03:53:20 2016
GPGPU-Sim PTX: 25900000 instructions simulated : ctaid=(50,0,0) tid=(95,0,0)
GPGPU-Sim PTX: 26000000 instructions simulated : ctaid=(73,0,0) tid=(95,0,0)
GPGPU-Sim PTX: 26100000 instructions simulated : ctaid=(99,0,0) tid=(31,0,0)
GPGPU-Sim PTX: 26200000 instructions simulated : ctaid=(35,0,0) tid=(63,0,0)
GPGPU-Sim PTX: 26300000 instructions simulated : ctaid=(60,0,0) tid=(63,0,0)
GPGPU-Sim uArch: cycles simulated: 53500  inst.: 26278976 (ipc=491.2) sim_rate=298624 (inst/sec) elapsed = 0:0:01:28 / Fri Mar  4 03:53:21 2016
GPGPU-Sim PTX: 26400000 instructions simulated : ctaid=(59,0,0) tid=(95,0,0)
GPGPU-Sim PTX: 26500000 instructions simulated : ctaid=(39,0,0) tid=(127,0,0)
GPGPU-Sim uArch: cycles simulated: 54000  inst.: 26535040 (ipc=491.4) sim_rate=298146 (inst/sec) elapsed = 0:0:01:29 / Fri Mar  4 03:53:22 2016
GPGPU-Sim PTX: 26600000 instructions simulated : ctaid=(99,0,0) tid=(127,0,0)
GPGPU-Sim PTX: 26700000 instructions simulated : ctaid=(23,0,0) tid=(95,0,0)
GPGPU-Sim PTX: 26800000 instructions simulated : ctaid=(19,0,0) tid=(31,0,0)
GPGPU-Sim uArch: cycles simulated: 54500  inst.: 26797536 (ipc=491.7) sim_rate=297750 (inst/sec) elapsed = 0:0:01:30 / Fri Mar  4 03:53:23 2016
GPGPU-Sim PTX: 26900000 instructions simulated : ctaid=(1,0,0) tid=(63,0,0)
GPGPU-Sim PTX: 27000000 instructions simulated : ctaid=(55,0,0) tid=(63,0,0)
GPGPU-Sim uArch: cycles simulated: 55000  inst.: 27049920 (ipc=491.8) sim_rate=297251 (inst/sec) elapsed = 0:0:01:31 / Fri Mar  4 03:53:24 2016
GPGPU-Sim PTX: 27100000 instructions simulated : ctaid=(3,0,0) tid=(95,0,0)
GPGPU-Sim PTX: 27200000 instructions simulated : ctaid=(116,0,0) tid=(31,0,0)
GPGPU-Sim PTX: 27300000 instructions simulated : ctaid=(53,0,0) tid=(95,0,0)
GPGPU-Sim PTX: 27400000 instructions simulated : ctaid=(43,0,0) tid=(127,0,0)
GPGPU-Sim PTX: 27500000 instructions simulated : ctaid=(13,0,0) tid=(31,0,0)
GPGPU-Sim PTX: 27600000 instructions simulated : ctaid=(113,0,0) tid=(95,0,0)
GPGPU-Sim uArch: cycles simulated: 56000  inst.: 27566752 (ipc=492.3) sim_rate=299638 (inst/sec) elapsed = 0:0:01:32 / Fri Mar  4 03:53:25 2016
GPGPU-Sim PTX: 27700000 instructions simulated : ctaid=(117,0,0) tid=(31,0,0)
GPGPU-Sim PTX: 27800000 instructions simulated : ctaid=(41,0,0) tid=(95,0,0)
GPGPU-Sim uArch: cycles simulated: 56500  inst.: 27810336 (ipc=492.2) sim_rate=299035 (inst/sec) elapsed = 0:0:01:33 / Fri Mar  4 03:53:26 2016
GPGPU-Sim PTX: 27900000 instructions simulated : ctaid=(40,0,0) tid=(95,0,0)
GPGPU-Sim PTX: 28000000 instructions simulated : ctaid=(11,0,0) tid=(31,0,0)
GPGPU-Sim uArch: cycles simulated: 57000  inst.: 28061440 (ipc=492.3) sim_rate=298525 (inst/sec) elapsed = 0:0:01:34 / Fri Mar  4 03:53:27 2016
GPGPU-Sim PTX: 28100000 instructions simulated : ctaid=(48,0,0) tid=(31,0,0)
GPGPU-Sim PTX: 28200000 instructions simulated : ctaid=(94,0,0) tid=(95,0,0)
GPGPU-Sim PTX: 28300000 instructions simulated : ctaid=(10,0,0) tid=(127,0,0)
GPGPU-Sim uArch: cycles simulated: 57500  inst.: 28325984 (ipc=492.6) sim_rate=298168 (inst/sec) elapsed = 0:0:01:35 / Fri Mar  4 03:53:28 2016
GPGPU-Sim PTX: 28400000 instructions simulated : ctaid=(46,0,0) tid=(31,0,0)
GPGPU-Sim PTX: 28500000 instructions simulated : ctaid=(104,0,0) tid=(95,0,0)
GPGPU-Sim PTX: 28600000 instructions simulated : ctaid=(60,0,0) tid=(31,0,0)
GPGPU-Sim PTX: 28700000 instructions simulated : ctaid=(63,0,0) tid=(95,0,0)
GPGPU-Sim PTX: 28800000 instructions simulated : ctaid=(60,0,0) tid=(95,0,0)
GPGPU-Sim uArch: cycles simulated: 58500  inst.: 28817216 (ipc=492.6) sim_rate=300179 (inst/sec) elapsed = 0:0:01:36 / Fri Mar  4 03:53:29 2016
GPGPU-Sim PTX: 28900000 instructions simulated : ctaid=(69,0,0) tid=(127,0,0)
GPGPU-Sim PTX: 29000000 instructions simulated : ctaid=(17,0,0) tid=(127,0,0)
GPGPU-Sim PTX: 29100000 instructions simulated : ctaid=(54,0,0) tid=(31,0,0)
GPGPU-Sim uArch: cycles simulated: 59000  inst.: 29068512 (ipc=492.7) sim_rate=299675 (inst/sec) elapsed = 0:0:01:37 / Fri Mar  4 03:53:30 2016
GPGPU-Sim PTX: 29200000 instructions simulated : ctaid=(58,0,0) tid=(31,0,0)
GPGPU-Sim PTX: 29300000 instructions simulated : ctaid=(3,0,0) tid=(127,0,0)
GPGPU-Sim uArch: cycles simulated: 59500  inst.: 29311776 (ipc=492.6) sim_rate=299099 (inst/sec) elapsed = 0:0:01:38 / Fri Mar  4 03:53:31 2016
GPGPU-Sim PTX: 29400000 instructions simulated : ctaid=(23,0,0) tid=(127,0,0)
GPGPU-Sim PTX: 29500000 instructions simulated : ctaid=(22,0,0) tid=(127,0,0)
GPGPU-Sim uArch: cycles simulated: 60000  inst.: 29536896 (ipc=492.3) sim_rate=298352 (inst/sec) elapsed = 0:0:01:39 / Fri Mar  4 03:53:32 2016
GPGPU-Sim PTX: 29600000 instructions simulated : ctaid=(13,0,0) tid=(95,0,0)
GPGPU-Sim PTX: 29700000 instructions simulated : ctaid=(20,0,0) tid=(63,0,0)
GPGPU-Sim PTX: 29800000 instructions simulated : ctaid=(94,0,0) tid=(31,0,0)
GPGPU-Sim PTX: 29900000 instructions simulated : ctaid=(21,0,0) tid=(95,0,0)
GPGPU-Sim PTX: 30000000 instructions simulated : ctaid=(90,0,0) tid=(127,0,0)
GPGPU-Sim uArch: cycles simulated: 61000  inst.: 30041472 (ipc=492.5) sim_rate=300414 (inst/sec) elapsed = 0:0:01:40 / Fri Mar  4 03:53:33 2016
GPGPU-Sim PTX: 30100000 instructions simulated : ctaid=(70,0,0) tid=(95,0,0)
GPGPU-Sim PTX: 30200000 instructions simulated : ctaid=(108,0,0) tid=(31,0,0)
GPGPU-Sim PTX: 30300000 instructions simulated : ctaid=(108,0,0) tid=(95,0,0)
GPGPU-Sim uArch: cycles simulated: 61500  inst.: 30288928 (ipc=492.5) sim_rate=299890 (inst/sec) elapsed = 0:0:01:41 / Fri Mar  4 03:53:34 2016
GPGPU-Sim PTX: 30400000 instructions simulated : ctaid=(47,0,0) tid=(31,0,0)
GPGPU-Sim PTX: 30500000 instructions simulated : ctaid=(99,0,0) tid=(63,0,0)
GPGPU-Sim uArch: cycles simulated: 62000  inst.: 30544448 (ipc=492.7) sim_rate=299455 (inst/sec) elapsed = 0:0:01:42 / Fri Mar  4 03:53:35 2016
GPGPU-Sim PTX: 30600000 instructions simulated : ctaid=(94,0,0) tid=(95,0,0)
GPGPU-Sim PTX: 30700000 instructions simulated : ctaid=(1,0,0) tid=(95,0,0)
GPGPU-Sim PTX: 30800000 instructions simulated : ctaid=(79,0,0) tid=(127,0,0)
GPGPU-Sim uArch: cycles simulated: 62500  inst.: 30813696 (ipc=493.0) sim_rate=299162 (inst/sec) elapsed = 0:0:01:43 / Fri Mar  4 03:53:36 2016
GPGPU-Sim PTX: 30900000 instructions simulated : ctaid=(1,0,0) tid=(95,0,0)
GPGPU-Sim PTX: 31000000 instructions simulated : ctaid=(115,0,0) tid=(95,0,0)
GPGPU-Sim PTX: 31100000 instructions simulated : ctaid=(41,0,0) tid=(63,0,0)
GPGPU-Sim PTX: 31200000 instructions simulated : ctaid=(56,0,0) tid=(95,0,0)
GPGPU-Sim PTX: 31300000 instructions simulated : ctaid=(63,0,0) tid=(31,0,0)
GPGPU-Sim uArch: cycles simulated: 63500  inst.: 31317088 (ipc=493.2) sim_rate=301125 (inst/sec) elapsed = 0:0:01:44 / Fri Mar  4 03:53:37 2016
GPGPU-Sim PTX: 31400000 instructions simulated : ctaid=(74,0,0) tid=(31,0,0)
GPGPU-Sim PTX: 31500000 instructions simulated : ctaid=(49,0,0) tid=(127,0,0)
GPGPU-Sim uArch: cycles simulated: 64000  inst.: 31548928 (ipc=493.0) sim_rate=300465 (inst/sec) elapsed = 0:0:01:45 / Fri Mar  4 03:53:38 2016
GPGPU-Sim PTX: 31600000 instructions simulated : ctaid=(42,0,0) tid=(127,0,0)
GPGPU-Sim PTX: 31700000 instructions simulated : ctaid=(24,0,0) tid=(31,0,0)
GPGPU-Sim PTX: 31800000 instructions simulated : ctaid=(94,0,0) tid=(63,0,0)
GPGPU-Sim uArch: cycles simulated: 64500  inst.: 31799904 (ipc=493.0) sim_rate=299999 (inst/sec) elapsed = 0:0:01:46 / Fri Mar  4 03:53:39 2016
GPGPU-Sim PTX: 31900000 instructions simulated : ctaid=(54,0,0) tid=(95,0,0)
GPGPU-Sim PTX: 32000000 instructions simulated : ctaid=(29,0,0) tid=(31,0,0)
GPGPU-Sim uArch: cycles simulated: 65000  inst.: 32033440 (ipc=492.8) sim_rate=299377 (inst/sec) elapsed = 0:0:01:47 / Fri Mar  4 03:53:40 2016
GPGPU-Sim PTX: 32100000 instructions simulated : ctaid=(102,0,0) tid=(95,0,0)
GPGPU-Sim PTX: 32200000 instructions simulated : ctaid=(57,0,0) tid=(31,0,0)
GPGPU-Sim PTX: 32300000 instructions simulated : ctaid=(102,0,0) tid=(63,0,0)
GPGPU-Sim PTX: 32400000 instructions simulated : ctaid=(88,0,0) tid=(31,0,0)
GPGPU-Sim PTX: 32500000 instructions simulated : ctaid=(89,0,0) tid=(95,0,0)
GPGPU-Sim uArch: cycles simulated: 66000  inst.: 32494112 (ipc=492.3) sim_rate=300871 (inst/sec) elapsed = 0:0:01:48 / Fri Mar  4 03:53:41 2016
GPGPU-Sim PTX: 32600000 instructions simulated : ctaid=(23,0,0) tid=(127,0,0)
GPGPU-Sim PTX: 32700000 instructions simulated : ctaid=(43,0,0) tid=(31,0,0)
GPGPU-Sim uArch: cycles simulated: 66500  inst.: 32729440 (ipc=492.2) sim_rate=300270 (inst/sec) elapsed = 0:0:01:49 / Fri Mar  4 03:53:42 2016
GPGPU-Sim PTX: 32800000 instructions simulated : ctaid=(52,0,0) tid=(63,0,0)
GPGPU-Sim PTX: 32900000 instructions simulated : ctaid=(14,0,0) tid=(63,0,0)
GPGPU-Sim uArch: cycles simulated: 67000  inst.: 32951168 (ipc=491.8) sim_rate=299556 (inst/sec) elapsed = 0:0:01:50 / Fri Mar  4 03:53:43 2016
GPGPU-Sim PTX: 33000000 instructions simulated : ctaid=(5,0,0) tid=(31,0,0)
GPGPU-Sim PTX: 33100000 instructions simulated : ctaid=(24,0,0) tid=(127,0,0)
GPGPU-Sim PTX: 33200000 instructions simulated : ctaid=(65,0,0) tid=(63,0,0)
GPGPU-Sim uArch: cycles simulated: 67500  inst.: 33218048 (ipc=492.1) sim_rate=299261 (inst/sec) elapsed = 0:0:01:51 / Fri Mar  4 03:53:44 2016
GPGPU-Sim PTX: 33300000 instructions simulated : ctaid=(55,0,0) tid=(127,0,0)
GPGPU-Sim PTX: 33400000 instructions simulated : ctaid=(73,0,0) tid=(127,0,0)
GPGPU-Sim PTX: 33500000 instructions simulated : ctaid=(83,0,0) tid=(95,0,0)
GPGPU-Sim uArch: Shader 8 finished CTA #0 (68142,0), 7 CTAs running
GPGPU-Sim uArch: core:  8, cta: 0 initialized @(68143,0)
GPGPU-Sim PTX: 33600000 instructions simulated : ctaid=(55,0,0) tid=(31,0,0)
GPGPU-Sim PTX: 33700000 instructions simulated : ctaid=(48,0,0) tid=(95,0,0)
GPGPU-Sim uArch: cycles simulated: 68500  inst.: 33697344 (ipc=491.9) sim_rate=300869 (inst/sec) elapsed = 0:0:01:52 / Fri Mar  4 03:53:45 2016
GPGPU-Sim uArch: Shader 11 finished CTA #0 (68560,0), 7 CTAs running
GPGPU-Sim uArch: core: 11, cta: 0 initialized @(68561,0)
GPGPU-Sim uArch: Shader 1 finished CTA #0 (68635,0), 7 CTAs running
GPGPU-Sim uArch: core:  1, cta: 0 initialized @(68636,0)
GPGPU-Sim PTX: 33800000 instructions simulated : ctaid=(64,0,0) tid=(63,0,0)
GPGPU-Sim PTX: 33900000 instructions simulated : ctaid=(84,0,0) tid=(95,0,0)
GPGPU-Sim uArch: cycles simulated: 69000  inst.: 33906720 (ipc=491.4) sim_rate=300059 (inst/sec) elapsed = 0:0:01:53 / Fri Mar  4 03:53:46 2016
GPGPU-Sim PTX: 34000000 instructions simulated : ctaid=(45,0,0) tid=(95,0,0)
GPGPU-Sim PTX: 34100000 instructions simulated : ctaid=(54,0,0) tid=(31,0,0)
GPGPU-Sim uArch: cycles simulated: 69500  inst.: 34130528 (ipc=491.1) sim_rate=299390 (inst/sec) elapsed = 0:0:01:54 / Fri Mar  4 03:53:47 2016
GPGPU-Sim PTX: 34200000 instructions simulated : ctaid=(97,0,0) tid=(127,0,0)
GPGPU-Sim uArch: Shader 13 finished CTA #0 (69692,0), 7 CTAs running
GPGPU-Sim uArch: core: 13, cta: 0 initialized @(69693,0)
GPGPU-Sim PTX: 34300000 instructions simulated : ctaid=(65,0,0) tid=(63,0,0)
GPGPU-Sim PTX: 34400000 instructions simulated : ctaid=(33,0,0) tid=(63,0,0)
GPGPU-Sim uArch: Shader 7 finished CTA #0 (70069,0), 7 CTAs running
GPGPU-Sim uArch: core:  7, cta: 0 initialized @(70070,0)
GPGPU-Sim PTX: 34500000 instructions simulated : ctaid=(35,0,0) tid=(31,0,0)
GPGPU-Sim uArch: Shader 0 finished CTA #0 (70313,0), 7 CTAs running
GPGPU-Sim uArch: core:  0, cta: 0 initialized @(70314,0)
GPGPU-Sim PTX: 34600000 instructions simulated : ctaid=(83,0,0) tid=(95,0,0)
GPGPU-Sim uArch: cycles simulated: 70500  inst.: 34587744 (ipc=490.6) sim_rate=300762 (inst/sec) elapsed = 0:0:01:55 / Fri Mar  4 03:53:48 2016
GPGPU-Sim PTX: 34700000 instructions simulated : ctaid=(60,0,0) tid=(31,0,0)
GPGPU-Sim PTX: 34800000 instructions simulated : ctaid=(90,0,0) tid=(95,0,0)
GPGPU-Sim uArch: Shader 5 finished CTA #0 (70963,0), 7 CTAs running
GPGPU-Sim uArch: core:  5, cta: 0 initialized @(70964,0)
GPGPU-Sim uArch: Shader 12 finished CTA #0 (70969,0), 7 CTAs running
GPGPU-Sim uArch: core: 12, cta: 0 initialized @(70970,0)
GPGPU-Sim uArch: cycles simulated: 71000  inst.: 34820320 (ipc=490.4) sim_rate=300175 (inst/sec) elapsed = 0:0:01:56 / Fri Mar  4 03:53:49 2016
GPGPU-Sim PTX: 34900000 instructions simulated : ctaid=(99,0,0) tid=(95,0,0)
GPGPU-Sim PTX: 35000000 instructions simulated : ctaid=(82,0,0) tid=(127,0,0)
GPGPU-Sim PTX: 35100000 instructions simulated : ctaid=(110,0,0) tid=(63,0,0)
GPGPU-Sim uArch: cycles simulated: 71500  inst.: 35061312 (ipc=490.4) sim_rate=299669 (inst/sec) elapsed = 0:0:01:57 / Fri Mar  4 03:53:50 2016
GPGPU-Sim uArch: Shader 3 finished CTA #0 (71524,0), 7 CTAs running
GPGPU-Sim uArch: core:  3, cta: 0 initialized @(71525,0)
GPGPU-Sim PTX: 35200000 instructions simulated : ctaid=(99,0,0) tid=(127,0,0)
GPGPU-Sim uArch: Shader 6 finished CTA #0 (71783,0), 7 CTAs running
GPGPU-Sim uArch: core:  6, cta: 0 initialized @(71784,0)
GPGPU-Sim uArch: Shader 9 finished CTA #0 (71900,0), 7 CTAs running
GPGPU-Sim uArch: core:  9, cta: 0 initialized @(71901,0)
GPGPU-Sim PTX: 35300000 instructions simulated : ctaid=(34,0,0) tid=(127,0,0)
GPGPU-Sim uArch: cycles simulated: 72000  inst.: 35296512 (ipc=490.2) sim_rate=299122 (inst/sec) elapsed = 0:0:01:58 / Fri Mar  4 03:53:51 2016
GPGPU-Sim PTX: 35400000 instructions simulated : ctaid=(24,0,0) tid=(63,0,0)
GPGPU-Sim PTX: 35500000 instructions simulated : ctaid=(84,0,0) tid=(127,0,0)
GPGPU-Sim PTX: 35600000 instructions simulated : ctaid=(26,0,0) tid=(63,0,0)
GPGPU-Sim uArch: Shader 14 finished CTA #0 (72623,0), 7 CTAs running
GPGPU-Sim uArch: core: 14, cta: 0 initialized @(72624,0)
GPGPU-Sim PTX: 35700000 instructions simulated : ctaid=(69,0,0) tid=(63,0,0)
GPGPU-Sim uArch: Shader 2 finished CTA #0 (72764,0), 7 CTAs running
GPGPU-Sim uArch: core:  2, cta: 0 initialized @(72765,0)
GPGPU-Sim uArch: Shader 4 finished CTA #0 (72900,0), 7 CTAs running
GPGPU-Sim uArch: core:  4, cta: 0 initialized @(72901,0)
GPGPU-Sim uArch: Shader 2 finished CTA #1 (72947,0), 7 CTAs running
GPGPU-Sim uArch: core:  2, cta: 1 initialized @(72948,0)
GPGPU-Sim PTX: 35800000 instructions simulated : ctaid=(132,0,0) tid=(31,0,0)
GPGPU-Sim uArch: cycles simulated: 73000  inst.: 35775520 (ipc=490.1) sim_rate=300634 (inst/sec) elapsed = 0:0:01:59 / Fri Mar  4 03:53:52 2016
GPGPU-Sim PTX: 35900000 instructions simulated : ctaid=(48,0,0) tid=(63,0,0)
GPGPU-Sim PTX: 36000000 instructions simulated : ctaid=(84,0,0) tid=(95,0,0)
GPGPU-Sim uArch: cycles simulated: 73500  inst.: 36012192 (ipc=490.0) sim_rate=300101 (inst/sec) elapsed = 0:0:02:00 / Fri Mar  4 03:53:53 2016
GPGPU-Sim uArch: Shader 0 finished CTA #1 (73602,0), 7 CTAs running
GPGPU-Sim uArch: core:  0, cta: 1 initialized @(73603,0)
GPGPU-Sim uArch: Shader 12 finished CTA #1 (73606,0), 7 CTAs running
GPGPU-Sim uArch: core: 12, cta: 1 initialized @(73607,0)
GPGPU-Sim PTX: 36100000 instructions simulated : ctaid=(45,0,0) tid=(127,0,0)
GPGPU-Sim uArch: Shader 11 finished CTA #1 (73757,0), 7 CTAs running
GPGPU-Sim uArch: core: 11, cta: 1 initialized @(73758,0)
GPGPU-Sim PTX: 36200000 instructions simulated : ctaid=(102,0,0) tid=(127,0,0)
GPGPU-Sim uArch: Shader 7 finished CTA #1 (73940,0), 7 CTAs running
GPGPU-Sim uArch: core:  7, cta: 1 initialized @(73941,0)
GPGPU-Sim PTX: 36300000 instructions simulated : ctaid=(108,0,0) tid=(63,0,0)
GPGPU-Sim uArch: cycles simulated: 74000  inst.: 36263840 (ipc=490.1) sim_rate=299701 (inst/sec) elapsed = 0:0:02:01 / Fri Mar  4 03:53:54 2016
GPGPU-Sim uArch: Shader 1 finished CTA #1 (74014,0), 7 CTAs running
GPGPU-Sim uArch: core:  1, cta: 1 initialized @(74015,0)
GPGPU-Sim uArch: Shader 10 finished CTA #0 (74118,0), 7 CTAs running
GPGPU-Sim uArch: core: 10, cta: 0 initialized @(74119,0)
GPGPU-Sim PTX: 36400000 instructions simulated : ctaid=(117,0,0) tid=(95,0,0)
GPGPU-Sim uArch: Shader 6 finished CTA #1 (74248,0), 7 CTAs running
GPGPU-Sim uArch: core:  6, cta: 1 initialized @(74249,0)
GPGPU-Sim PTX: 36500000 instructions simulated : ctaid=(91,0,0) tid=(127,0,0)
GPGPU-Sim uArch: cycles simulated: 74500  inst.: 36532128 (ipc=490.4) sim_rate=299443 (inst/sec) elapsed = 0:0:02:02 / Fri Mar  4 03:53:55 2016
GPGPU-Sim PTX: 36600000 instructions simulated : ctaid=(133,0,0) tid=(95,0,0)
GPGPU-Sim uArch: Shader 13 finished CTA #1 (74689,0), 7 CTAs running
GPGPU-Sim uArch: core: 13, cta: 1 initialized @(74690,0)
GPGPU-Sim PTX: 36700000 instructions simulated : ctaid=(78,0,0) tid=(31,0,0)
GPGPU-Sim PTX: 36800000 instructions simulated : ctaid=(48,0,0) tid=(63,0,0)
GPGPU-Sim uArch: Shader 4 finished CTA #1 (74941,0), 7 CTAs running
GPGPU-Sim uArch: core:  4, cta: 1 initialized @(74942,0)
GPGPU-Sim PTX: 36900000 instructions simulated : ctaid=(129,0,0) tid=(95,0,0)
GPGPU-Sim uArch: Shader 8 finished CTA #1 (75169,0), 7 CTAs running
GPGPU-Sim uArch: core:  8, cta: 1 initialized @(75170,0)
GPGPU-Sim PTX: 37000000 instructions simulated : ctaid=(89,0,0) tid=(95,0,0)
GPGPU-Sim uArch: Shader 5 finished CTA #1 (75496,0), 7 CTAs running
GPGPU-Sim uArch: core:  5, cta: 1 initialized @(75497,0)
GPGPU-Sim uArch: cycles simulated: 75500  inst.: 37048288 (ipc=490.7) sim_rate=301205 (inst/sec) elapsed = 0:0:02:03 / Fri Mar  4 03:53:56 2016
GPGPU-Sim PTX: 37100000 instructions simulated : ctaid=(133,0,0) tid=(63,0,0)
GPGPU-Sim PTX: 37200000 instructions simulated : ctaid=(36,0,0) tid=(127,0,0)
GPGPU-Sim uArch: Shader 14 finished CTA #1 (75857,0), 7 CTAs running
GPGPU-Sim uArch: core: 14, cta: 1 initialized @(75858,0)
GPGPU-Sim PTX: 37300000 instructions simulated : ctaid=(52,0,0) tid=(127,0,0)
GPGPU-Sim uArch: cycles simulated: 76000  inst.: 37291616 (ipc=490.7) sim_rate=300738 (inst/sec) elapsed = 0:0:02:04 / Fri Mar  4 03:53:57 2016
GPGPU-Sim PTX: 37400000 instructions simulated : ctaid=(50,0,0) tid=(31,0,0)
GPGPU-Sim uArch: Shader 9 finished CTA #1 (76212,0), 7 CTAs running
GPGPU-Sim uArch: core:  9, cta: 1 initialized @(76213,0)
GPGPU-Sim PTX: 37500000 instructions simulated : ctaid=(73,0,0) tid=(95,0,0)
GPGPU-Sim uArch: cycles simulated: 76500  inst.: 37547456 (ipc=490.8) sim_rate=300379 (inst/sec) elapsed = 0:0:02:05 / Fri Mar  4 03:53:58 2016
GPGPU-Sim PTX: 37600000 instructions simulated : ctaid=(107,0,0) tid=(95,0,0)
GPGPU-Sim uArch: Shader 3 finished CTA #1 (76648,0), 7 CTAs running
GPGPU-Sim uArch: core:  3, cta: 1 initialized @(76649,0)
GPGPU-Sim PTX: 37700000 instructions simulated : ctaid=(58,0,0) tid=(127,0,0)
GPGPU-Sim PTX: 37800000 instructions simulated : ctaid=(94,0,0) tid=(31,0,0)
GPGPU-Sim uArch: cycles simulated: 77000  inst.: 37769120 (ipc=490.5) sim_rate=299754 (inst/sec) elapsed = 0:0:02:06 / Fri Mar  4 03:53:59 2016
GPGPU-Sim PTX: 37900000 instructions simulated : ctaid=(90,0,0) tid=(31,0,0)
GPGPU-Sim uArch: Shader 10 finished CTA #1 (77177,0), 7 CTAs running
GPGPU-Sim uArch: core: 10, cta: 1 initialized @(77178,0)
GPGPU-Sim uArch: Shader 12 finished CTA #2 (77189,0), 7 CTAs running
GPGPU-Sim uArch: core: 12, cta: 2 initialized @(77190,0)
GPGPU-Sim uArch: Shader 9 finished CTA #2 (77274,0), 7 CTAs running
GPGPU-Sim uArch: core:  9, cta: 2 initialized @(77275,0)
GPGPU-Sim PTX: 38000000 instructions simulated : ctaid=(79,0,0) tid=(63,0,0)
GPGPU-Sim uArch: cycles simulated: 77500  inst.: 38037568 (ipc=490.8) sim_rate=299508 (inst/sec) elapsed = 0:0:02:07 / Fri Mar  4 03:54:00 2016
GPGPU-Sim PTX: 38100000 instructions simulated : ctaid=(79,0,0) tid=(31,0,0)
GPGPU-Sim uArch: Shader 2 finished CTA #2 (77582,0), 7 CTAs running
GPGPU-Sim uArch: core:  2, cta: 2 initialized @(77583,0)
GPGPU-Sim PTX: 38200000 instructions simulated : ctaid=(79,0,0) tid=(63,0,0)
GPGPU-Sim uArch: Shader 11 finished CTA #2 (77822,0), 7 CTAs running
GPGPU-Sim uArch: core: 11, cta: 2 initialized @(77823,0)
GPGPU-Sim PTX: 38300000 instructions simulated : ctaid=(127,0,0) tid=(95,0,0)
GPGPU-Sim PTX: 38400000 instructions simulated : ctaid=(116,0,0) tid=(31,0,0)
GPGPU-Sim PTX: 38500000 instructions simulated : ctaid=(104,0,0) tid=(95,0,0)
GPGPU-Sim uArch: Shader 3 finished CTA #2 (78420,0), 7 CTAs running
GPGPU-Sim uArch: core:  3, cta: 2 initialized @(78421,0)
GPGPU-Sim PTX: 38600000 instructions simulated : ctaid=(154,0,0) tid=(63,0,0)
GPGPU-Sim uArch: cycles simulated: 78500  inst.: 38560864 (ipc=491.2) sim_rate=301256 (inst/sec) elapsed = 0:0:02:08 / Fri Mar  4 03:54:01 2016
GPGPU-Sim PTX: 38700000 instructions simulated : ctaid=(61,0,0) tid=(63,0,0)
GPGPU-Sim PTX: 38800000 instructions simulated : ctaid=(117,0,0) tid=(31,0,0)
GPGPU-Sim uArch: cycles simulated: 79000  inst.: 38835200 (ipc=491.6) sim_rate=301048 (inst/sec) elapsed = 0:0:02:09 / Fri Mar  4 03:54:02 2016
GPGPU-Sim PTX: 38900000 instructions simulated : ctaid=(152,0,0) tid=(31,0,0)
GPGPU-Sim uArch: Shader 1 finished CTA #2 (79202,0), 7 CTAs running
GPGPU-Sim uArch: core:  1, cta: 2 initialized @(79203,0)
GPGPU-Sim PTX: 39000000 instructions simulated : ctaid=(53,0,0) tid=(63,0,0)
[...]
max_icnt2mem_latency = 1146 
max_icnt2sh_latency = 398447 
mrq_lat_table:126543 	3802 	5817 	13178 	40484 	58552 	84485 	75594 	27131 	1904 	19 	0 	0 	0 	0 	0 	0 	0 	0 	0 	0 	0 	0 	0 	0 	0 	0 	0 	0 	0 	0 	0 	
dq_lat_table:0 	0 	0 	0 	0 	0 	0 	0 	0 	0 	0 	0 	0 	0 	0 	0 	0 	0 	0 	0 	0 	0 	0 	0 	0 	0 	0 	0 	0 	0 	0 	0 	
mf_lat_table:0 	0 	0 	0 	0 	0 	0 	85 	30171 	232858 	49395 	6 	0 	0 	0 	0 	0 	0 	0 	0 	0 	0 	0 	0 	0 	0 	0 	0 	0 	0 	0 	0 	
icnt2mem_lat_table:0 	0 	0 	17827 	8709 	20414 	64587 	74913 	111826 	14348 	11 	0 	0 	0 	0 	0 	0 	0 	0 	0 	0 	0 	0 	0 	
icnt2sh_lat_table:0 	0 	0 	142352 	43826 	1332 	5 	0 	0 	0 	0 	35 	1295 	2727 	5334 	10645 	21121 	42784 	41059 	0 	0 	0 	0 	0 	
mf_lat_pw_table:0 	0 	0 	0 	0 	0 	0 	0 	48 	744 	2 	0 	0 	0 	0 	0 	0 	0 	0 	0 	0 	0 	0 	0 	0 	0 	0 	0 	0 	0 	0 	0 	
maximum concurrent accesses to same row:
dram[0]:        30        29        14        20        26        20        36        36        14        16        32        28        32        30        16        14 
dram[1]:        26        28        22        14        26        20        34        36        26        12        28        30        32        30        26        14 
dram[2]:        31        29        18        26        20        24        34        38        16        26        32        32        32        30        18        26 
dram[3]:        32        28        14        14        20        24        34        32        16        12        32        26        32        30        16        14 
dram[4]:        29        29        16        26        20        32        38        34        20        24        30        32        30        30        12        24 
dram[5]:        26        29        20        20        20        24        32        32        18        22        30        30        30        30        18        20 
maximum service time to same row:
dram[0]:      3522      3713      4791      4256      3997      3459      2622      2625      6830      5450      2851      2898      3417      3603      6847      5200 
dram[1]:      2424      3785      3796      4335      4018      3055      2647      2652      5999      5130      2665      2898      3288      3526      6454      5230 
dram[2]:      2269      3609      4628      4393      2580      2572      2594      2937      5426      5251      2640      3277      3511      3302      5310      5391 
dram[3]:      2213      3453      3997      4308      2576      2587      2700      3112      5076      5541      3379      3112      3520      3237      5324      5095 
dram[4]:      3662      3741      4245      4835      2554      2550      2595      2776      4860      4899      2864      2875      3211      3293      5409      5132 
dram[5]:      3514      3772      4062      3945      2556      2551      2602      3018      5699      4326      2800      2767      3386      3384      5290      5110 
average row accesses per activate:
dram[0]:  1.563944  1.573611  1.544148  1.543620  1.550462  1.570340  1.580111  1.597765  1.543860  1.541779  1.574673  1.597208  1.563910  1.572509  1.554348  1.570350 
dram[1]:  1.539715  1.533153  1.517149  1.530010  1.553651  1.536271  1.553293  1.567123  1.530947  1.530435  1.545946  1.561775  1.540222  1.545424  1.538151  1.535055 
dram[2]:  1.568465  1.581298  1.542564  1.558011  1.560606  1.565758  1.592760  1.603364  1.547514  1.542299  1.571968  1.579565  1.574673  1.576844  1.559646  1.556463 
dram[3]:  1.550769  1.535751  1.514094  1.532609  1.545176  1.538149  1.572509  1.558583  1.516739  1.530435  1.552765  1.548562  1.552239  1.541260  1.528901  1.546468 
dram[4]:  1.567773  1.557388  1.549451  1.554254  1.561144  1.559835  1.585036  1.588337  1.544381  1.554348  1.572509  1.574131  1.561242  1.574131  1.546468  1.567123 
dram[5]:  1.541129  1.539402  1.524324  1.531568  1.534710  1.541284  1.562842  1.554348  1.530435  1.529923  1.552239  1.552239  1.549611  1.555933  1.537634  1.543860 
average row locality = 437509/281642 = 1.553422
number of total memory accesses made:
dram[0]:         0         0         0         0         0         0         0         0         0         0         0         0         0         0         0         0 
dram[1]:         0         0         0         0         0         0         0         0         0         0         0         0         0         0         0         0 
dram[2]:         0         0         0         0         0         0         0         0         0         0         0         0         0         0         0         0 
dram[3]:         0         0         0         0         0         0         0         0         0         0         0         0         0         0         0         0 
dram[4]:         0         0         0         0         0         0         0         0         0         0         0         0         0         0         0         0 
dram[5]:         0         0         0         0         0         0         0         0         0         0         0         0         0         0         0         0 
total accesses: 0
min_bank_accesses = 0!
min_chip_accesses = 0!
number of total read accesses:
dram[0]:      3251      3246      3232      3232      3242      3242      3264      3264      3264      3264      3264      3264      3264      3264      3264      3264 
dram[1]:      3250      3246      3232      3232      3242      3242      3264      3264      3264      3264      3264      3264      3264      3264      3264      3264 
dram[2]:      3250      3246      3232      3232      3242      3244      3264      3264      3264      3264      3264      3264      3264      3264      3264      3264 
dram[3]:      3250      3246      3232      3232      3242      3244      3264      3264      3264      3264      3264      3264      3264      3264      3264      3264 
dram[4]:      3248      3246      3232      3232      3242      3244      3264      3264      3264      3264      3264      3264      3264      3264      3264      3264 
dram[5]:      3248      3246      3232      3232      3242      3244      3264      3264      3264      3264      3264      3264      3264      3264      3264      3264 
total reads: 312509
bank skew: 3264/3232 = 1.01
chip skew: 52086/52084 = 1.00
number of total write accesses:
dram[0]:      1286      1286      1280      1280      1290      1290      1312      1312      1312      1312      1312      1312      1312      1312      1312      1312 
dram[1]:      1286      1286      1280      1280      1290      1290      1312      1312      1312      1312      1312      1312      1312      1312      1312      1312 
dram[2]:      1286      1286      1280      1280      1290      1292      1312      1312      1312      1312      1312      1312      1312      1312      1312      1312 
dram[3]:      1286      1286      1280      1280      1290      1292      1312      1312      1312      1312      1312      1312      1312      1312      1312      1312 
dram[4]:      1286      1286      1280      1280      1290      1292      1312      1312      1312      1312      1312      1312      1312      1312      1312      1312 
dram[5]:      1286      1286      1280      1280      1290      1292      1312      1312      1312      1312      1312      1312      1312      1312      1312      1312 
total reads: 125000
bank skew: 1312/1280 = 1.02
chip skew: 20834/20832 = 1.00
average mf latency per bank:
dram[0]:        547       546       552       549       557       552       550       560       548       545       544       544       553       552       561       562
dram[1]:        500       514       511       523       509       521       511       531       504       525       507       521       507       523       518       536
dram[2]:        624       639       639       649       636       646       636       651       633       643       626       641       636       646       648       658
dram[3]:        543       534       540       542       548       554       550       548       540       542       550       539       544       539       560       561
dram[4]:        594       590       607       602       607       601       604       605       602       602       595       598       601       607       613       624
dram[5]:        564       545       563       558       568       567       567       567       560       558       563       556       564       564       576       568
maximum mf latency per bank:
dram[0]:       1926      1983      1903      1796      1872      1700      1631      1923      1553      1575      1569      1678      1642      1757      1743      1596
dram[1]:       2271      1702      1637      1624      1641      1815      1466      1862      1607      1627      1743      1600      1975      1534      1718      1766
dram[2]:       1749      2230      1789      1867      1781      1903      1722      2209      1810      1759      1814      1864      1834      1793      1821      1785
dram[3]:       2041      1503      1593      1829      1568      1689      1596      1691      1520      1628      1636      1522      1578      1699      1725      1772
dram[4]:       1703      1674      1956      2328      1820      1775      1688      1699      1822      1927      1798      1771      1968      1682      1838      1819
dram[5]:       1616      1543      1666      1912      1584      1659      1768      1682      1753      1887      1953      1598      1628      1639      1672      1910

Number of Memory Banks Accessed per Memory Operation per Warp (from 0):
0	0	0	0	0	0	0	0	0	0	0	0	0	0	0	0	0	0	0	0	0	0	0	0	0	0	0	0	0	0	0	0	0	0	0	0	0	0	0	0	0	0	0	0	0	0	0	0	0	0	0	0	0	0	0	0	0	0	0	0	0	0	0	0	0	0	0	0	0	0	0	0	0	0	0	0	0	0	0	0	0	0	0	0	0	0	0	0	0	0	0	0	0	0	0	0	
Average # of Memory Banks Accessed per Memory Operation per Warp=-nan

position of mrq chosen
0	0	0	0	0	0	0	0	0	0	0	0	0	0	0	0	

average position of mrq chosen = -nan
Memory Partition 0: 
Cache L2_bank_000:
MSHR contents

Cache L2_bank_001:
MSHR contents

In Dram Latency Queue (total = 0): 
DRAM[0]: 16 bks, busW=4 BL=8 CL=12, tRRD=2 tCCD=6, tRCD=12 tRAS=28 tRP=12 tRC=40
n_cmd=525951 n_nop=286949 n_act=46592 n_pre=46576 n_req=72917 n_rd=104170 n_write=41664 bw_util=2.218
n_activity=513636 dram_eff=2.271
bk0: 6502a 257778i bk1: 6492a 245203i bk2: 6464a 244663i bk3: 6464a 237372i bk4: 6484a 235002i bk5: 6484a 226665i bk6: 6528a 224031i bk7: 6528a 213285i bk8: 6528a 251310i bk9: 6528a 242726i bk10: 6528a 243625i bk11: 6528a 239963i bk12: 6528a 232199i bk13: 6528a 225370i bk14: 6528a 219869i bk15: 6528a 211224i 
dram_util_bins: 0 0 0 0 0 0 0 0 0 0
dram_eff_bins: 0 0 0 0 0 0 0 0 0 0
mrqq: max=16 avg=14.798
Memory Partition 1: 
Cache L2_bank_002:
MSHR contents

Cache L2_bank_003:
MSHR contents

In Dram Latency Queue (total = 0): 
DRAM[1]: 16 bks, busW=4 BL=8 CL=12, tRRD=2 tCCD=6, tRCD=12 tRAS=28 tRP=12 tRC=40
n_cmd=525951 n_nop=285505 n_act=47315 n_pre=47299 n_req=72916 n_rd=104168 n_write=41664 bw_util=2.218
n_activity=516147 dram_eff=2.26
bk0: 6500a 253846i bk1: 6492a 248164i bk2: 6464a 240429i bk3: 6464a 234890i bk4: 6484a 235675i bk5: 6484a 229052i bk6: 6528a 221491i bk7: 6528a 210909i bk8: 6528a 246777i bk9: 6528a 241417i bk10: 6528a 238685i bk11: 6528a 232351i bk12: 6528a 231647i bk13: 6528a 221479i bk14: 6528a 216913i bk15: 6528a 210538i 
dram_util_bins: 0 0 0 0 0 0 0 0 0 0
dram_eff_bins: 0 0 0 0 0 0 0 0 0 0
mrqq: max=16 avg=14.4351
Memory Partition 2: 
Cache L2_bank_004:
MSHR contents

Cache L2_bank_005:
MSHR contents

In Dram Latency Queue (total = 0): 
DRAM[2]: 16 bks, busW=4 BL=8 CL=12, tRRD=2 tCCD=6, tRCD=12 tRAS=28 tRP=12 tRC=40
n_cmd=525951 n_nop=287085 n_act=46521 n_pre=46505 n_req=72920 n_rd=104172 n_write=41668 bw_util=2.218
n_activity=513008 dram_eff=2.274
bk0: 6500a 255366i bk1: 6492a 248805i bk2: 6464a 242732i bk3: 6464a 239488i bk4: 6484a 234299i bk5: 6488a 227751i bk6: 6528a 226654i bk7: 6528a 216987i bk8: 6528a 245406i bk9: 6528a 245007i bk10: 6528a 241163i bk11: 6528a 238280i bk12: 6528a 230921i bk13: 6528a 226294i bk14: 6528a 220944i bk15: 6528a 211677i 
dram_util_bins: 0 0 0 0 0 0 0 0 0 0
dram_eff_bins: 0 0 0 0 0 0 0 0 0 0
mrqq: max=16 avg=14.975
Memory Partition 3: 
Cache L2_bank_006:
MSHR contents

Cache L2_bank_007:
MSHR contents
MSHR: tag=0x80f21180, atomic=0 1 entries : 0x7f0fb91f8770 :  mf: uid=8583438, sid10:w03, part=3, addr=0x80f21180, load , size=128, unknown  status = IN_PARTITION_DRAM (398447), 

In Dram Latency Queue (total = 0): 
DRAM[3]: 16 bks, busW=4 BL=8 CL=12, tRRD=2 tCCD=6, tRCD=12 tRAS=28 tRP=12 tRC=40
n_cmd=525951 n_nop=285516 n_act=47306 n_pre=47290 n_req=72920 n_rd=104171 n_write=41668 bw_util=2.218
n_activity=515106 dram_eff=2.265
bk0: 6500a 256857i bk1: 6492a 246606i bk2: 6464a 241827i bk3: 6464a 235373i bk4: 6484a 233038i bk5: 6488a 223906i bk6: 6528a 217673i bk7: 6528a 211493i bk8: 6528a 246129i bk9: 6528a 236431i bk10: 6528a 240270i bk11: 6527a 236847i bk12: 6528a 229321i bk13: 6528a 222396i bk14: 6528a 219633i bk15: 6528a 211086i 
dram_util_bins: 0 0 0 0 0 0 0 0 0 0
dram_eff_bins: 0 0 0 0 0 0 0 0 0 0
mrqq: max=16 avg=14.5601
Memory Partition 4: 
Cache L2_bank_008:
MSHR contents

Cache L2_bank_009:
MSHR contents

In Dram Latency Queue (total = 0): 
DRAM[4]: 16 bks, busW=4 BL=8 CL=12, tRRD=2 tCCD=6, tRCD=12 tRAS=28 tRP=12 tRC=40
n_cmd=525951 n_nop=286857 n_act=46637 n_pre=46621 n_req=72918 n_rd=104168 n_write=41668 bw_util=2.218
n_activity=513412 dram_eff=2.272
bk0: 6496a 254157i bk1: 6492a 251363i bk2: 6464a 242181i bk3: 6464a 236390i bk4: 6484a 233503i bk5: 6488a 228078i bk6: 6528a 222803i bk7: 6528a 217223i bk8: 6528a 244735i bk9: 6528a 244114i bk10: 6528a 243865i bk11: 6528a 238595i bk12: 6528a 232595i bk13: 6528a 226359i bk14: 6528a 218720i bk15: 6528a 208018i 
dram_util_bins: 0 0 0 0 0 0 0 0 0 0
dram_eff_bins: 0 0 0 0 0 0 0 0 0 0
mrqq: max=16 avg=14.8536
Memory Partition 5: 
Cache L2_bank_010:
MSHR contents

Cache L2_bank_011:
MSHR contents

In Dram Latency Queue (total = 0): 
DRAM[5]: 16 bks, busW=4 BL=8 CL=12, tRRD=2 tCCD=6, tRCD=12 tRAS=28 tRP=12 tRC=40
n_cmd=525951 n_nop=285589 n_act=47271 n_pre=47255 n_req=72918 n_rd=104168 n_write=41668 bw_util=2.218
n_activity=515744 dram_eff=2.262
bk0: 6496a 249521i bk1: 6492a 244654i bk2: 6464a 239669i bk3: 6464a 232290i bk4: 6484a 233694i bk5: 6488a 225755i bk6: 6528a 220073i bk7: 6528a 212504i bk8: 6528a 247237i bk9: 6528a 238862i bk10: 6528a 239646i bk11: 6528a 231342i bk12: 6528a 227636i bk13: 6528a 223305i bk14: 6528a 216363i bk15: 6528a 208235i 
dram_util_bins: 0 0 0 0 0 0 0 0 0 0
dram_eff_bins: 0 0 0 0 0 0 0 0 0 0
mrqq: max=16 avg=14.6825

========= L2 cache stats =========
L2_cache_bank[0]: Access = 26087, Miss = 26045, Miss_rate = 0.998, Pending_hits = 9, Reservation_fails = 19088
L2_cache_bank[1]: Access = 26040, Miss = 26040, Miss_rate = 1.000, Pending_hits = 0, Reservation_fails = 28563
L2_cache_bank[2]: Access = 26072, Miss = 26044, Miss_rate = 0.999, Pending_hits = 6, Reservation_fails = 20188
L2_cache_bank[3]: Access = 26040, Miss = 26040, Miss_rate = 1.000, Pending_hits = 0, Reservation_fails = 25300
L2_cache_bank[4]: Access = 26072, Miss = 26044, Miss_rate = 0.999, Pending_hits = 6, Reservation_fails = 20433
L2_cache_bank[5]: Access = 26042, Miss = 26042, Miss_rate = 1.000, Pending_hits = 0, Reservation_fails = 24175
L2_cache_bank[6]: Access = 26072, Miss = 26044, Miss_rate = 0.999, Pending_hits = 6, Reservation_fails = 19652
L2_cache_bank[7]: Access = 26042, Miss = 26042, Miss_rate = 1.000, Pending_hits = 0, Reservation_fails = 20716
L2_cache_bank[8]: Access = 26042, Miss = 26042, Miss_rate = 1.000, Pending_hits = 0, Reservation_fails = 17716
L2_cache_bank[9]: Access = 26042, Miss = 26042, Miss_rate = 1.000, Pending_hits = 0, Reservation_fails = 23040
L2_cache_bank[10]: Access = 26042, Miss = 26042, Miss_rate = 1.000, Pending_hits = 0, Reservation_fails = 16974
L2_cache_bank[11]: Access = 26042, Miss = 26042, Miss_rate = 1.000, Pending_hits = 0, Reservation_fails = 21664
L2_total_cache_accesses = 312635
L2_total_cache_misses = 312509
L2_total_cache_miss_rate = 0.9996
L2_total_cache_pending_hits = 27
L2_total_cache_reservation_fails = 257509
L2_total_cache_breakdown:
	L2_cache_stats_breakdown[GLOBAL_ACC_R][MISS] = 187500
	L2_cache_stats_breakdown[GLOBAL_ACC_R][RESERVATION_FAIL] = 153962
	L2_cache_stats_breakdown[CONST_ACC_R][HIT] = 11
	L2_cache_stats_breakdown[CONST_ACC_R][HIT_RESERVED] = 3
	L2_cache_stats_breakdown[CONST_ACC_R][MISS] = 1
	L2_cache_stats_breakdown[CONST_ACC_R][RESERVATION_FAIL] = 109
	L2_cache_stats_breakdown[GLOBAL_ACC_W][MISS] = 125000
	L2_cache_stats_breakdown[GLOBAL_ACC_W][RESERVATION_FAIL] = 102546
	L2_cache_stats_breakdown[INST_ACC_R][HIT] = 88
	L2_cache_stats_breakdown[INST_ACC_R][HIT_RESERVED] = 24
	L2_cache_stats_breakdown[INST_ACC_R][MISS] = 8
	L2_cache_stats_breakdown[INST_ACC_R][RESERVATION_FAIL] = 892
L2_cache_data_port_util = 0.000
L2_cache_fill_port_util = 0.261

icnt_total_pkts_mem_to_simt=1063145
icnt_total_pkts_simt_to_mem=812635
LD_mem_lat_dist  0 0 0 0 0 0 0 0 0 0 0 0 0 0 0 0 0 0 0 0 0 0 0 0 0 0 0
ST_mem_lat_dist  0 0 0 0 0 0 0 0 0 0 0 0 0 0 0 0 0 0 0 0 0 0 0 0 0 0 0
----------------------------Interconnect-DETAILS--------------------------------
Class 0:
Packet latency average = 59.8115
	minimum = 6
	maximum = 890
Network latency average = 39.6337
	minimum = 6
	maximum = 762
Slowest packet = 4114
Flit latency average = 29.1529
	minimum = 6
	maximum = 762
Slowest flit = 12642
Fragmentation average = 0.671025
	minimum = 0
	maximum = 629
Injected packet rate average = 0.0581209
	minimum = 0.0507193 (at node 8)
	maximum = 0.0654715 (at node 15)
Accepted packet rate average = 0.0581209
	minimum = 0.0507193 (at node 8)
	maximum = 0.0654715 (at node 15)
Injected flit rate average = 0.17436
	minimum = 0.131834 (at node 8)
	maximum = 0.222717 (at node 15)
Accepted flit rate average= 0.17436
	minimum = 0.169919 (at node 16)
	maximum = 0.183228 (at node 10)
Injected packet length average = 2.99995
Accepted packet length average = 2.99995
Total in-flight flits = 0 (0 measured)
====== Overall Traffic Statistics ======
====== Traffic class 0 ======
Packet latency average = 59.8115 (1 samples)
	minimum = 6 (1 samples)
	maximum = 890 (1 samples)
Network latency average = 39.6337 (1 samples)
	minimum = 6 (1 samples)
	maximum = 762 (1 samples)
Flit latency average = 29.1529 (1 samples)
	minimum = 6 (1 samples)
	maximum = 762 (1 samples)
Fragmentation average = 0.671025 (1 samples)
	minimum = 0 (1 samples)
	maximum = 629 (1 samples)
Injected packet rate average = 0.0581209 (1 samples)
	minimum = 0.0507193 (1 samples)
	maximum = 0.0654715 (1 samples)
Accepted packet rate average = 0.0581209 (1 samples)
	minimum = 0.0507193 (1 samples)
	maximum = 0.0654715 (1 samples)
Injected flit rate average = 0.17436 (1 samples)
	minimum = 0.131834 (1 samples)
	maximum = 0.222717 (1 samples)
Accepted flit rate average = 0.17436 (1 samples)
	minimum = 0.169919 (1 samples)
	maximum = 0.183228 (1 samples)
Injected packet size average = 2.99995 (1 samples)
Accepted packet size average = 2.99995 (1 samples)
Hops average = 1 (1 samples)
----------------------------END-of-Interconnect-DETAILS-------------------------


gpgpu_simulation_time = 0 days, 0 hrs, 9 min, 5 sec (545 sec)
gpgpu_simulation_rate = 359232 (inst/sec)
gpgpu_simulation_rate = 731 (cycle/sec)
GPGPU-Sim: synchronize waiting for inactive GPU simulation
GPGPU-Sim API: Stream Manager State
GPGPU-Sim: detected inactive GPU simulation thread
Options count             : 4000000     
BlackScholesGPU() time    : 541492.625000 msec
Effective memory bandwidth: 0.000074 GB/s
Gigaoptions per second    : 0.000007     
Reading back GPU results...
Checking the results...
...running CPU calculations.
Comparing the results...
L1 norm: 1.729535E-07
Max absolute error: 1.192093E-05
TEST PASSED
Shutting down...
...releasing GPU memory.
...releasing CPU memory.
Shutdown done.
GPGPU-Sim: exit_simulation called
GPGPU-Sim: simulation thread signaled exit

Press ENTER to exit...
