

        *** GPGPU-Sim Simulator Version 3.2.2  [build 0] ***


GPGPU-Sim PTX: simulation mode 0 (can change with PTX_SIM_MODE_FUNC environment variable:
               1=functional simulation only, 0=detailed performance simulator)
GPGPU-Sim: Configuration options:

-network_mode                           1 # Interconnection network mode
-inter_config_file   config_fermi_islip.icnt # Interconnection network config file
-gpgpu_ptx_use_cuobjdump                    1 # Use cuobjdump to extract ptx and sass from binaries
-gpgpu_experimental_lib_support                    0 # Try to extract code from cuda libraries [Broken because of unknown cudaGetExportTable]
-gpgpu_ptx_convert_to_ptxplus                    0 # Convert SASS (native ISA) to ptxplus and run ptxplus
-gpgpu_ptx_force_max_capability                   20 # Force maximum compute capability
-gpgpu_ptx_inst_debug_to_file                    0 # Dump executed instructions' debug information to file
-gpgpu_ptx_inst_debug_file       inst_debug.txt # Executed instructions' debug output file
-gpgpu_ptx_inst_debug_thread_uid                    1 # Thread UID for executed instructions' debug output
-gpgpu_simd_model                       1 # 1 = post-dominator
-gpgpu_shader_core_pipeline              1536:32 # shader core pipeline config, i.e., {<nthread>:<warpsize>}
-gpgpu_tex_cache:l1  4:128:24,L:R:m:N:L,F:128:4,128:2 # per-shader L1 texture cache  (READ-ONLY) config  {<nsets>:<bsize>:<assoc>,<rep>:<wr>:<alloc>:<wr_alloc>,<mshr>:<N>:<merge>,<mq>:<rf>}
-gpgpu_const_cache:l1 64:64:2,L:R:f:N:L,A:2:32,4 # per-shader L1 constant memory cache  (READ-ONLY) config  {<nsets>:<bsize>:<assoc>,<rep>:<wr>:<alloc>:<wr_alloc>,<mshr>:<N>:<merge>,<mq>} 
-gpgpu_cache:il1     4:128:4,L:R:f:N:L,A:2:32,4 # shader L1 instruction cache config  {<nsets>:<bsize>:<assoc>,<rep>:<wr>:<alloc>:<wr_alloc>,<mshr>:<N>:<merge>,<mq>} 
-gpgpu_cache:dl1     32:128:4,L:L:m:N:H,A:32:8,8 # per-shader L1 data cache config  {<nsets>:<bsize>:<assoc>,<rep>:<wr>:<alloc>:<wr_alloc>,<mshr>:<N>:<merge>,<mq> | none}
-gpgpu_cache:dl1PrefL1                 none # per-shader L1 data cache config  {<nsets>:<bsize>:<assoc>,<rep>:<wr>:<alloc>:<wr_alloc>,<mshr>:<N>:<merge>,<mq> | none}
-gpgpu_cache:dl1PreShared                 none # per-shader L1 data cache config  {<nsets>:<bsize>:<assoc>,<rep>:<wr>:<alloc>:<wr_alloc>,<mshr>:<N>:<merge>,<mq> | none}
-gmem_skip_L1D                          0 # global memory access skip L1D cache (implements -Xptxas -dlcm=cg, default=no skip)
-gpgpu_perfect_mem                      0 # enable perfect memory mode (no cache miss)
-n_regfile_gating_group                    4 # group of lanes that should be read/written together)
-gpgpu_clock_gated_reg_file                    0 # enable clock gated reg file for power calculations
-gpgpu_clock_gated_lanes                    0 # enable clock gated lanes for power calculations
-gpgpu_shader_registers                32768 # Number of registers per shader core. Limits number of concurrent CTAs. (default 8192)
-gpgpu_shader_cta                       8 # Maximum number of concurrent CTAs in shader (default 8)
-gpgpu_num_cta_barriers                   16 # Maximum number of named barriers per CTA (default 16)
-gpgpu_n_clusters                      15 # number of processing clusters
-gpgpu_n_cores_per_cluster                    1 # number of simd cores per cluster
-gpgpu_n_cluster_ejection_buffer_size                    8 # number of packets in ejection buffer
-gpgpu_n_ldst_response_buffer_size                    2 # number of response packets in ld/st unit ejection buffer
-gpgpu_shmem_size                   16384 # Size of shared memory per shader core (default 16kB)
-gpgpu_shmem_size                   49152 # Size of shared memory per shader core (default 16kB)
-gpgpu_shmem_size_PrefL1                16384 # Size of shared memory per shader core (default 16kB)
-gpgpu_shmem_size_PrefShared                16384 # Size of shared memory per shader core (default 16kB)
-gpgpu_shmem_num_banks                   32 # Number of banks in the shared memory in each shader core (default 16)
-gpgpu_shmem_limited_broadcast                    0 # Limit shared memory to do one broadcast per cycle (default on)
-gpgpu_shmem_warp_parts                    1 # Number of portions a warp is divided into for shared memory bank conflict check 
-gpgpu_warpdistro_shader                   -1 # Specify which shader core to collect the warp size distribution from
-gpgpu_warp_issue_shader                    0 # Specify which shader core to collect the warp issue distribution from
-gpgpu_local_mem_map                    1 # Mapping from local memory space address to simulated GPU physical address space (default = enabled)
-gpgpu_num_reg_banks                   16 # Number of register banks (default = 8)
-gpgpu_reg_bank_use_warp_id                    0 # Use warp ID in mapping registers to banks (default = off)
-gpgpu_operand_collector_num_units_sp                    6 # number of collector units (default = 4)
-gpgpu_operand_collector_num_units_sfu                    8 # number of collector units (default = 4)
-gpgpu_operand_collector_num_units_mem                    2 # number of collector units (default = 2)
-gpgpu_operand_collector_num_units_gen                    0 # number of collector units (default = 0)
-gpgpu_operand_collector_num_in_ports_sp                    2 # number of collector unit in ports (default = 1)
-gpgpu_operand_collector_num_in_ports_sfu                    1 # number of collector unit in ports (default = 1)
-gpgpu_operand_collector_num_in_ports_mem                    1 # number of collector unit in ports (default = 1)
-gpgpu_operand_collector_num_in_ports_gen                    0 # number of collector unit in ports (default = 0)
-gpgpu_operand_collector_num_out_ports_sp                    2 # number of collector unit in ports (default = 1)
-gpgpu_operand_collector_num_out_ports_sfu                    1 # number of collector unit in ports (default = 1)
-gpgpu_operand_collector_num_out_ports_mem                    1 # number of collector unit in ports (default = 1)
-gpgpu_operand_collector_num_out_ports_gen                    0 # number of collector unit in ports (default = 0)
-gpgpu_coalesce_arch                   13 # Coalescing arch (default = 13, anything else is off for now)
-gpgpu_num_sched_per_core                    2 # Number of warp schedulers per core
-gpgpu_max_insn_issue_per_warp                    1 # Max number of instructions that can be issued per warp in one cycle by scheduler
-gpgpu_simt_core_sim_order                    1 # Select the simulation order of cores in a cluster (0=Fix, 1=Round-Robin)
-gpgpu_pipeline_widths        2,1,1,2,1,1,2 # Pipeline widths ID_OC_SP,ID_OC_SFU,ID_OC_MEM,OC_EX_SP,OC_EX_SFU,OC_EX_MEM,EX_WB
-gpgpu_num_sp_units                     2 # Number of SP units (default=1)
-gpgpu_num_sfu_units                    1 # Number of SF units (default=1)
-gpgpu_num_mem_units                    1 # Number if ldst units (default=1) WARNING: not hooked up to anything
-gpgpu_scheduler                      gto # Scheduler configuration: < lrr | gto | two_level_active > If two_level_active:<num_active_warps>:<inner_prioritization>:<outer_prioritization>For complete list of prioritization values see shader.h enum scheduler_prioritization_typeDefault: gto
-gpgpu_dram_scheduler                    1 # 0 = fifo, 1 = FR-FCFS (defaul)
-gpgpu_dram_partition_queues              8:8:8:8 # i2$:$2d:d2$:$2i
-l2_ideal                               0 # Use a ideal L2 cache that always hit
-gpgpu_cache:dl2     64:256:8,L:B:m:W:L,A:32:4,4:0,32 # unified banked L2 data cache config  {<nsets>:<bsize>:<assoc>,<rep>:<wr>:<alloc>:<wr_alloc>,<mshr>:<N>:<merge>,<mq>}
-gpgpu_cache:dl2_texture_only                    0 # L2 cache used for texture only
-gpgpu_n_mem                            6 # number of memory modules (e.g. memory controllers) in gpu
-gpgpu_n_sub_partition_per_mchannel                    2 # number of memory subpartition in each memory module
-gpgpu_n_mem_per_ctrlr                    2 # number of memory chips per memory controller
-gpgpu_memlatency_stat                   14 # track and display latency statistics 0x2 enables MC, 0x4 enables queue logs
-gpgpu_frfcfs_dram_sched_queue_size                   16 # 0 = unlimited (default); # entries per chip
-gpgpu_dram_return_queue_size                  116 # 0 = unlimited (default); # entries per chip
-gpgpu_dram_buswidth                    4 # default = 4 bytes (8 bytes per cycle at DDR)
-gpgpu_dram_burst_length                    8 # Burst length of each DRAM request (default = 4 data bus cycle)
-dram_data_command_freq_ratio                    4 # Frequency ratio between DRAM data bus and command bus (default = 2 times, i.e. DDR)
-gpgpu_dram_timing_opt nbk=16:CCD=2:RRD=6:RCD=12:RAS=28:RP=12:RC=40: CL=12:WL=4:CDLR=5:WR=12:nbkgrp=4:CCDL=3:RTPL=2 # DRAM timing parameters = {nbk:tCCD:tRRD:tRCD:tRAS:tRP:tRC:CL:WL:tCDLR:tWR:nbkgrp:tCCDL:tRTPL}
-rop_latency                          120 # ROP queue latency (default 85)
-dram_latency                         100 # DRAM latency (default 30)
-gpgpu_mem_addr_mapping dramid@8;00000000.00000000.00000000.00000000.0000RRRR.RRRRRRRR.BBBCCCCB.CCSSSSSS # mapping memory address to dram model {dramid@<start bit>;<memory address map>}
-gpgpu_mem_addr_test                    0 # run sweep test to check address mapping for aliased address
-gpgpu_mem_address_mask                    1 # 0 = old addressing mask, 1 = new addressing mask, 2 = new add. mask + flipped bank sel and chip sel bits
-gpuwattch_xml_file  gpuwattch_gtx480.xml # GPUWattch XML file
-power_simulation_enabled                    0 # Turn on power simulator (1=On, 0=Off)
-power_per_cycle_dump                    0 # Dump detailed power output each cycle
-power_trace_enabled                    0 # produce a file for the power trace (1=On, 0=Off)
-power_trace_zlevel                     6 # Compression level of the power trace output log (0=no comp, 9=highest)
-steady_power_levels_enabled                    0 # produce a file for the steady power levels (1=On, 0=Off)
-steady_state_definition                  8:4 # allowed deviation:number of samples
-gpgpu_max_cycle                        0 # terminates gpu simulation early (0 = no limit)
-gpgpu_max_insn                         0 # terminates gpu simulation early (0 = no limit)
-gpgpu_max_cta                          0 # terminates gpu simulation early (0 = no limit)
-gpgpu_runtime_stat                   500 # display runtime statistics such as dram utilization {<freq>:<flag>}
-liveness_message_freq                    1 # Minimum number of seconds between simulation liveness messages (0 = always print)
-gpgpu_flush_l1_cache                    0 # Flush L1 cache at the end of each kernel call
-gpgpu_flush_l2_cache                    0 # Flush L2 cache at the end of each kernel call
-gpgpu_deadlock_detect                    1 # Stop the simulation at deadlock (1=on (default), 0=off)
-gpgpu_ptx_instruction_classification                    0 # if enabled will classify ptx instruction types per kernel (Max 255 kernels now)
-gpgpu_ptx_sim_mode                     0 # Select between Performance (default) or Functional simulation (1)
-gpgpu_clock_domains 700.0:700.0:700.0:924.0 # Clock Domain Frequencies in MhZ {<Core Clock>:<ICNT Clock>:<L2 Clock>:<DRAM Clock>}
-gpgpu_max_concurrent_kernel                    8 # maximum kernels that can run concurrently on GPU
-gpgpu_cflog_interval                    0 # Interval between each snapshot in control flow logger
-visualizer_enabled                     0 # Turn on visualizer output (1=On, 0=Off)
-visualizer_outputfile                 NULL # Specifies the output log file for visualizer
-visualizer_zlevel                      6 # Compression level of the visualizer output log (0=no comp, 9=highest)
-trace_enabled                          0 # Turn on traces
-trace_components                    none # comma seperated list of traces to enable. Complete list found in trace_streams.tup. Default none
-trace_sampling_core                    0 # The core which is printed using CORE_DPRINTF. Default 0
-trace_sampling_memory_partition                   -1 # The memory partition which is printed using MEMPART_DPRINTF. Default -1 (i.e. all)
-enable_ptx_file_line_stats                    1 # Turn on PTX source line statistic profiling. (1 = On)
-ptx_line_stats_filename gpgpu_inst_stats.txt # Output file for PTX source line statistics.
-save_embedded_ptx                      0 # saves ptx files embedded in binary as <n>.ptx
-keep                                   0 # keep intermediate files created by GPGPU-Sim when interfacing with external programs
-gpgpu_ptx_save_converted_ptxplus                    0 # Saved converted ptxplus to a file
-ptx_opcode_latency_int         4,13,4,5,145 # Opcode latencies for integers <ADD,MAX,MUL,MAD,DIV>Default 1,1,19,25,145
-ptx_opcode_latency_fp          4,13,4,5,39 # Opcode latencies for single precision floating points <ADD,MAX,MUL,MAD,DIV>Default 1,1,1,1,30
-ptx_opcode_latency_dp         8,19,8,8,330 # Opcode latencies for double precision floating points <ADD,MAX,MUL,MAD,DIV>Default 8,8,8,8,335
-ptx_opcode_initiation_int            1,2,2,1,8 # Opcode initiation intervals for integers <ADD,MAX,MUL,MAD,DIV>Default 1,1,4,4,32
-ptx_opcode_initiation_fp            1,2,1,1,4 # Opcode initiation intervals for single precision floating points <ADD,MAX,MUL,MAD,DIV>Default 1,1,1,1,5
-ptx_opcode_initiation_dp         8,16,8,8,130 # Opcode initiation intervals for double precision floating points <ADD,MAX,MUL,MAD,DIV>Default 8,8,8,8,130
DRAM Timing Options:
nbk                                    16 # number of banks
CCD                                     2 # column to column delay
RRD                                     6 # minimal delay between activation of rows in different banks
RCD                                    12 # row to column delay
RAS                                    28 # time needed to activate row
RP                                     12 # time needed to precharge (deactivate) row
RC                                     40 # row cycle time
CDLR                                    5 # switching from write to read (changes tWTR)
WR                                     12 # last data-in to row precharge
CL                                     12 # CAS latency
WL                                      4 # Write latency
nbkgrp                                  4 # number of bank groups
CCDL                                    3 # column to column delay between accesses to different bank groups
RTPL                                    2 # read to precharge delay between accesses to different bank groups
Total number of memory sub partition = 12
addr_dec_mask[CHIP]  = 0000000000000000 	high:64 low:0
addr_dec_mask[BK]    = 000000000000e100 	high:16 low:8
addr_dec_mask[ROW]   = 000000000fff0000 	high:28 low:16
addr_dec_mask[COL]   = 0000000000001eff 	high:13 low:0
addr_dec_mask[BURST] = 000000000000003f 	high:6 low:0
sub_partition_id_mask = 0000000000000100
GPGPU-Sim uArch: clock freqs: 700000000.000000:700000000.000000:700000000.000000:924000000.000000
GPGPU-Sim uArch: clock periods: 0.00000000142857142857:0.00000000142857142857:0.00000000142857142857:0.00000000108225108225
*** Initializing Memory Statistics ***
GPGPU-Sim uArch: interconnect node map (shaderID+MemID to icntID)
GPGPU-Sim uArch: Memory nodes ID start from index: 15
GPGPU-Sim uArch:    0   1   2   3   4
GPGPU-Sim uArch:    5   6   7   8   9
GPGPU-Sim uArch:   10  11  12  13  14
GPGPU-Sim uArch:   15  16  17  18  19
GPGPU-Sim uArch:   20  21  22  23  24
GPGPU-Sim uArch:   25  26
GPGPU-Sim uArch: interconnect node reverse map (icntID to shaderID+MemID)
GPGPU-Sim uArch: Memory nodes start from ID: 15
GPGPU-Sim uArch:    0   1   2   3   4
GPGPU-Sim uArch:    5   6   7   8   9
GPGPU-Sim uArch:   10  11  12  13  14
GPGPU-Sim uArch:   15  16  17  18  19
GPGPU-Sim uArch:   20  21  22  23  24
GPGPU-Sim uArch:   25  26
c498d9f32ab5dd92351405d48e0f6df7  /sciclone/data20/adwait/applications/benchmarks/CUDA/BFS/gpgpu_ptx_sim__BFS
GPGPU-Sim uArch: performance model initialization complete.
GPGPU-Sim PTX: __cudaRegisterFatBinary, fat_cubin_handle = 1, filename=bfs.cu
self exe links to: /sciclone/data20/adwait/applications/benchmarks/CUDA/BFS/gpgpu_ptx_sim__BFS
Running md5sum using "md5sum /sciclone/data20/adwait/applications/benchmarks/CUDA/BFS/gpgpu_ptx_sim__BFS "
Parsing file _cuobjdump_complete_output_1hzeQA
######### cuobjdump parser ########
## Adding new section ELF
Adding arch: sm_20
Adding identifier: bfs.cu
## Adding new section PTX
Adding ptx filename: _cuobjdump_1.ptx
Adding arch: sm_20
Adding identifier: bfs.cu
Done parsing!!!
GPGPU-Sim PTX: __cudaRegisterFunction _Z6KernelP4NodePiPbS2_S1_S2_i : hostFun 0x0x405636, fat_cubin_handle = 1
GPGPU-Sim PTX: instruction assembly for function '_Z6KernelP4NodePiPbS2_S1_S2_i'...   done.
GPGPU-Sim PTX: finding reconvergence points for '_Z6KernelP4NodePiPbS2_S1_S2_i'...
GPGPU-Sim PTX: Finding dominators for '_Z6KernelP4NodePiPbS2_S1_S2_i'...
GPGPU-Sim PTX: Finding immediate dominators for '_Z6KernelP4NodePiPbS2_S1_S2_i'...
GPGPU-Sim PTX: Finding postdominators for '_Z6KernelP4NodePiPbS2_S1_S2_i'...
GPGPU-Sim PTX: Finding immediate postdominators for '_Z6KernelP4NodePiPbS2_S1_S2_i'...
GPGPU-Sim PTX: pre-decoding instructions for '_Z6KernelP4NodePiPbS2_S1_S2_i'...
GPGPU-Sim PTX: reconvergence points for _Z6KernelP4NodePiPbS2_S1_S2_i...
GPGPU-Sim PTX:  1 (potential) branch divergence @  PC=0x030 (_1.ptx:72) @%p1 bra $Lt_0_5122;
GPGPU-Sim PTX:    immediate post dominator      @  PC=0x1e8 (_1.ptx:141) exit;
GPGPU-Sim PTX:  2 (potential) branch divergence @  PC=0x068 (_1.ptx:79) @%p2 bra $Lt_0_5122;
GPGPU-Sim PTX:    immediate post dominator      @  PC=0x1e8 (_1.ptx:141) exit;
GPGPU-Sim PTX:  3 (potential) branch divergence @  PC=0x0e0 (_1.ptx:97) @%p3 bra $Lt_0_5122;
GPGPU-Sim PTX:    immediate post dominator      @  PC=0x1e8 (_1.ptx:141) exit;
GPGPU-Sim PTX:  4 (potential) branch divergence @  PC=0x138 (_1.ptx:111) @%p4 bra $Lt_0_4354;
GPGPU-Sim PTX:    immediate post dominator      @  PC=0x1c8 (_1.ptx:134) add.s32 %r11, %r11, 1;
GPGPU-Sim PTX:  5 (potential) branch divergence @  PC=0x1e0 (_1.ptx:137) @%p5 bra $Lt_0_4098;
GPGPU-Sim PTX:    immediate post dominator      @  PC=0x1e8 (_1.ptx:141) exit;
GPGPU-Sim PTX: ... end of reconvergence points for _Z6KernelP4NodePiPbS2_S1_S2_i
GPGPU-Sim PTX: ... done pre-decoding instructions for '_Z6KernelP4NodePiPbS2_S1_S2_i'.
GPGPU-Sim PTX: finished parsing EMBEDDED .ptx file _1.ptx
Adding _cuobjdump_1.ptx with cubin handle 1
GPGPU-Sim PTX: extracting embedded .ptx to temporary file "_ptx_GSM4bl"
Running: cat _ptx_GSM4bl | sed 's/.version 1.5/.version 1.4/' | sed 's/, texmode_independent//' | sed 's/\(\.extern \.const\[1\] .b8 \w\+\)\[\]/\1\[1\]/' | sed 's/const\[.\]/const\[0\]/g' > _ptx2_ttfrY5
GPGPU-Sim PTX: generating ptxinfo using "$CUDA_INSTALL_PATH/bin/ptxas --gpu-name=sm_20 -v _ptx2_ttfrY5 --output-file  /dev/null 2> _ptx_GSM4blinfo"
GPGPU-Sim PTX: Kernel '_Z6KernelP4NodePiPbS2_S1_S2_i' : regs=18, lmem=0, smem=0, cmem=84
GPGPU-Sim PTX: removing ptxinfo using "rm -f _ptx_GSM4bl _ptx2_ttfrY5 _ptx_GSM4blinfo"
GPGPU-Sim PTX: loading globals with explicit initializers... 
GPGPU-Sim PTX: finished loading globals (0 bytes total).
GPGPU-Sim PTX: loading constants with explicit initializers...  done.
Reading File
Input file: ./data/graph65536.txt
Read File
Copied Everything to GPU memory

GPGPU-Sim PTX: cudaLaunch for 0x0x405636 (mode=performance simulation) on stream 0
GPGPU-Sim PTX: pushing kernel '_Z6KernelP4NodePiPbS2_S1_S2_i' to stream 0, gridDim= (256,1,1) blockDim = (256,1,1) 
kernel '_Z6KernelP4NodePiPbS2_S1_S2_i' transfer to GPU hardware scheduler
GPGPU-Sim uArch: Shader 1 bind to kernel 1 '_Z6KernelP4NodePiPbS2_S1_S2_i'
GPGPU-Sim uArch: CTA/core = 6, limited by: threads regs
GPGPU-Sim uArch: core:  1, cta: 0 initialized @(1,0)
GPGPU-Sim uArch: Shader 2 bind to kernel 1 '_Z6KernelP4NodePiPbS2_S1_S2_i'
GPGPU-Sim uArch: core:  2, cta: 0 initialized @(1,0)
GPGPU-Sim uArch: Shader 3 bind to kernel 1 '_Z6KernelP4NodePiPbS2_S1_S2_i'
GPGPU-Sim uArch: core:  3, cta: 0 initialized @(1,0)
GPGPU-Sim uArch: Shader 4 bind to kernel 1 '_Z6KernelP4NodePiPbS2_S1_S2_i'
GPGPU-Sim uArch: core:  4, cta: 0 initialized @(1,0)
GPGPU-Sim uArch: Shader 5 bind to kernel 1 '_Z6KernelP4NodePiPbS2_S1_S2_i'
GPGPU-Sim uArch: core:  5, cta: 0 initialized @(1,0)
GPGPU-Sim uArch: Shader 6 bind to kernel 1 '_Z6KernelP4NodePiPbS2_S1_S2_i'
GPGPU-Sim uArch: core:  6, cta: 0 initialized @(1,0)
GPGPU-Sim uArch: Shader 7 bind to kernel 1 '_Z6KernelP4NodePiPbS2_S1_S2_i'
GPGPU-Sim uArch: core:  7, cta: 0 initialized @(1,0)
GPGPU-Sim uArch: Shader 8 bind to kernel 1 '_Z6KernelP4NodePiPbS2_S1_S2_i'
GPGPU-Sim uArch: core:  8, cta: 0 initialized @(1,0)
GPGPU-Sim uArch: Shader 9 bind to kernel 1 '_Z6KernelP4NodePiPbS2_S1_S2_i'
GPGPU-Sim uArch: core:  9, cta: 0 initialized @(1,0)
GPGPU-Sim uArch: Shader 10 bind to kernel 1 '_Z6KernelP4NodePiPbS2_S1_S2_i'
GPGPU-Sim uArch: core: 10, cta: 0 initialized @(1,0)
GPGPU-Sim uArch: Shader 11 bind to kernel 1 '_Z6KernelP4NodePiPbS2_S1_S2_i'
GPGPU-Sim uArch: core: 11, cta: 0 initialized @(1,0)
GPGPU-Sim uArch: Shader 12 bind to kernel 1 '_Z6KernelP4NodePiPbS2_S1_S2_i'
GPGPU-Sim uArch: core: 12, cta: 0 initialized @(1,0)
GPGPU-Sim uArch: Shader 13 bind to kernel 1 '_Z6KernelP4NodePiPbS2_S1_S2_i'
GPGPU-Sim uArch: core: 13, cta: 0 initialized @(1,0)
GPGPU-Sim uArch: Shader 14 bind to kernel 1 '_Z6KernelP4NodePiPbS2_S1_S2_i'
GPGPU-Sim uArch: core: 14, cta: 0 initialized @(1,0)
GPGPU-Sim uArch: Shader 0 bind to kernel 1 '_Z6KernelP4NodePiPbS2_S1_S2_i'
GPGPU-Sim uArch: core:  0, cta: 0 initialized @(1,0)
GPGPU-Sim uArch: core:  1, cta: 1 initialized @(2,0)
GPGPU-Sim uArch: core:  2, cta: 1 initialized @(2,0)
GPGPU-Sim uArch: core:  3, cta: 1 initialized @(2,0)
GPGPU-Sim uArch: core:  4, cta: 1 initialized @(2,0)
GPGPU-Sim uArch: core:  5, cta: 1 initialized @(2,0)
GPGPU-Sim uArch: core:  6, cta: 1 initialized @(2,0)
GPGPU-Sim uArch: core:  7, cta: 1 initialized @(2,0)
GPGPU-Sim uArch: core:  8, cta: 1 initialized @(2,0)
GPGPU-Sim uArch: core:  9, cta: 1 initialized @(2,0)
GPGPU-Sim uArch: core: 10, cta: 1 initialized @(2,0)
GPGPU-Sim uArch: core: 11, cta: 1 initialized @(2,0)
GPGPU-Sim uArch: core: 12, cta: 1 initialized @(2,0)
GPGPU-Sim uArch: core: 13, cta: 1 initialized @(2,0)
GPGPU-Sim uArch: core: 14, cta: 1 initialized @(2,0)
GPGPU-Sim uArch: core:  0, cta: 1 initialized @(2,0)
GPGPU-Sim uArch: core:  1, cta: 2 initialized @(3,0)
GPGPU-Sim uArch: core:  2, cta: 2 initialized @(3,0)
GPGPU-Sim uArch: core:  3, cta: 2 initialized @(3,0)
GPGPU-Sim uArch: core:  4, cta: 2 initialized @(3,0)
GPGPU-Sim uArch: core:  5, cta: 2 initialized @(3,0)
GPGPU-Sim uArch: core:  6, cta: 2 initialized @(3,0)
GPGPU-Sim uArch: core:  7, cta: 2 initialized @(3,0)
GPGPU-Sim uArch: core:  8, cta: 2 initialized @(3,0)
GPGPU-Sim uArch: core:  9, cta: 2 initialized @(3,0)
GPGPU-Sim uArch: core: 10, cta: 2 initialized @(3,0)
GPGPU-Sim uArch: core: 11, cta: 2 initialized @(3,0)
GPGPU-Sim uArch: core: 12, cta: 2 initialized @(3,0)
GPGPU-Sim uArch: core: 13, cta: 2 initialized @(3,0)
GPGPU-Sim uArch: core: 14, cta: 2 initialized @(3,0)
GPGPU-Sim uArch: core:  0, cta: 2 initialized @(3,0)
GPGPU-Sim uArch: core:  1, cta: 3 initialized @(4,0)
GPGPU-Sim uArch: core:  2, cta: 3 initialized @(4,0)
GPGPU-Sim uArch: core:  3, cta: 3 initialized @(4,0)
GPGPU-Sim uArch: core:  4, cta: 3 initialized @(4,0)
GPGPU-Sim uArch: core:  5, cta: 3 initialized @(4,0)
GPGPU-Sim uArch: core:  6, cta: 3 initialized @(4,0)
GPGPU-Sim uArch: core:  7, cta: 3 initialized @(4,0)
GPGPU-Sim uArch: core:  8, cta: 3 initialized @(4,0)
GPGPU-Sim uArch: core:  9, cta: 3 initialized @(4,0)
GPGPU-Sim uArch: core: 10, cta: 3 initialized @(4,0)
GPGPU-Sim uArch: core: 11, cta: 3 initialized @(4,0)
GPGPU-Sim uArch: core: 12, cta: 3 initialized @(4,0)
GPGPU-Sim uArch: core: 13, cta: 3 initialized @(4,0)
GPGPU-Sim uArch: core: 14, cta: 3 initialized @(4,0)
GPGPU-Sim uArch: core:  0, cta: 3 initialized @(4,0)
GPGPU-Sim uArch: core:  1, cta: 4 initialized @(5,0)
GPGPU-Sim uArch: core:  2, cta: 4 initialized @(5,0)
GPGPU-Sim uArch: core:  3, cta: 4 initialized @(5,0)
GPGPU-Sim uArch: core:  4, cta: 4 initialized @(5,0)
GPGPU-Sim uArch: core:  5, cta: 4 initialized @(5,0)
GPGPU-Sim uArch: core:  6, cta: 4 initialized @(5,0)
GPGPU-Sim uArch: core:  7, cta: 4 initialized @(5,0)
GPGPU-Sim uArch: core:  8, cta: 4 initialized @(5,0)
GPGPU-Sim uArch: core:  9, cta: 4 initialized @(5,0)
GPGPU-Sim uArch: core: 10, cta: 4 initialized @(5,0)
GPGPU-Sim uArch: core: 11, cta: 4 initialized @(5,0)
GPGPU-Sim uArch: core: 12, cta: 4 initialized @(5,0)
GPGPU-Sim uArch: core: 13, cta: 4 initialized @(5,0)
GPGPU-Sim uArch: core: 14, cta: 4 initialized @(5,0)
GPGPU-Sim uArch: core:  0, cta: 4 initialized @(5,0)
GPGPU-Sim uArch: core:  1, cta: 5 initialized @(6,0)
GPGPU-Sim uArch: core:  2, cta: 5 initialized @(6,0)
GPGPU-Sim uArch: core:  3, cta: 5 initialized @(6,0)
GPGPU-Sim uArch: core:  4, cta: 5 initialized @(6,0)
GPGPU-Sim uArch: core:  5, cta: 5 initialized @(6,0)
GPGPU-Sim uArch: core:  6, cta: 5 initialized @(6,0)
GPGPU-Sim uArch: core:  7, cta: 5 initialized @(6,0)
GPGPU-Sim uArch: core:  8, cta: 5 initialized @(6,0)
GPGPU-Sim uArch: core:  9, cta: 5 initialized @(6,0)
GPGPU-Sim uArch: core: 10, cta: 5 initialized @(6,0)
GPGPU-Sim uArch: core: 11, cta: 5 initialized @(6,0)
GPGPU-Sim uArch: core: 12, cta: 5 initialized @(6,0)
GPGPU-Sim uArch: core: 13, cta: 5 initialized @(6,0)
GPGPU-Sim uArch: core: 14, cta: 5 initialized @(6,0)
GPGPU-Sim uArch: core:  0, cta: 5 initialized @(6,0)
GPGPU-Sim PTX: 100000 instructions simulated : ctaid=(68,0,0) tid=(63,0,0)
GPGPU-Sim uArch: cycles simulated: 500  inst.: 92032 (ipc=184.1) sim_rate=46016 (inst/sec) elapsed = 0:0:00:02 / Sun Feb 28 21:33:52 2016
GPGPU-Sim PTX: 200000 instructions simulated : ctaid=(58,0,0) tid=(127,0,0)
GPGPU-Sim PTX: 300000 instructions simulated : ctaid=(36,0,0) tid=(189,0,0)
GPGPU-Sim uArch: Shader 2 finished CTA #0 (1259,0), 5 CTAs running
GPGPU-Sim uArch: Shader 2 finished CTA #1 (1259,0), 4 CTAs running
GPGPU-Sim uArch: Shader 2 finished CTA #2 (1259,0), 3 CTAs running
GPGPU-Sim uArch: Shader 3 finished CTA #0 (1259,0), 5 CTAs running
GPGPU-Sim uArch: Shader 3 finished CTA #1 (1259,0), 4 CTAs running
GPGPU-Sim uArch: Shader 3 finished CTA #2 (1259,0), 3 CTAs running
GPGPU-Sim uArch: core:  2, cta: 0 initialized @(1260,0)
GPGPU-Sim uArch: core:  3, cta: 0 initialized @(1260,0)
GPGPU-Sim uArch: core:  2, cta: 1 initialized @(1261,0)
GPGPU-Sim uArch: core:  3, cta: 1 initialized @(1261,0)
GPGPU-Sim uArch: core:  2, cta: 2 initialized @(1262,0)
GPGPU-Sim uArch: core:  3, cta: 2 initialized @(1262,0)
GPGPU-Sim uArch: Shader 4 finished CTA #0 (1273,0), 5 CTAs running
GPGPU-Sim uArch: Shader 4 finished CTA #1 (1273,0), 4 CTAs running
GPGPU-Sim uArch: Shader 4 finished CTA #2 (1273,0), 3 CTAs running
GPGPU-Sim uArch: Shader 4 finished CTA #3 (1273,0), 2 CTAs running
GPGPU-Sim uArch: core:  4, cta: 0 initialized @(1274,0)
GPGPU-Sim uArch: core:  4, cta: 1 initialized @(1275,0)
GPGPU-Sim uArch: core:  4, cta: 2 initialized @(1276,0)
GPGPU-Sim uArch: core:  4, cta: 3 initialized @(1277,0)
GPGPU-Sim uArch: Shader 4 finished CTA #5 (1281,0), 5 CTAs running
GPGPU-Sim uArch: core:  4, cta: 5 initialized @(1282,0)
GPGPU-Sim uArch: Shader 5 finished CTA #0 (1282,0), 5 CTAs running
GPGPU-Sim uArch: Shader 5 finished CTA #1 (1282,0), 4 CTAs running
GPGPU-Sim uArch: Shader 5 finished CTA #2 (1282,0), 3 CTAs running
GPGPU-Sim uArch: Shader 5 finished CTA #3 (1282,0), 2 CTAs running
GPGPU-Sim uArch: core:  5, cta: 0 initialized @(1283,0)
GPGPU-Sim uArch: core:  5, cta: 1 initialized @(1284,0)
GPGPU-Sim uArch: Shader 0 finished CTA #0 (1284,0), 5 CTAs running
GPGPU-Sim uArch: Shader 0 finished CTA #1 (1284,0), 4 CTAs running
GPGPU-Sim uArch: Shader 0 finished CTA #2 (1284,0), 3 CTAs running
GPGPU-Sim uArch: Shader 0 finished CTA #3 (1284,0), 2 CTAs running
GPGPU-Sim uArch: core:  0, cta: 0 initialized @(1285,0)
GPGPU-Sim uArch: core:  5, cta: 2 initialized @(1285,0)
GPGPU-Sim uArch: core:  0, cta: 1 initialized @(1286,0)
GPGPU-Sim uArch: core:  5, cta: 3 initialized @(1286,0)
GPGPU-Sim uArch: Shader 1 finished CTA #1 (1286,0), 5 CTAs running
GPGPU-Sim uArch: Shader 1 finished CTA #2 (1286,0), 4 CTAs running
GPGPU-Sim uArch: core:  0, cta: 2 initialized @(1287,0)
GPGPU-Sim uArch: core:  1, cta: 1 initialized @(1287,0)
GPGPU-Sim uArch: core:  0, cta: 3 initialized @(1288,0)
GPGPU-Sim uArch: core:  1, cta: 2 initialized @(1288,0)
GPGPU-Sim uArch: Shader 2 finished CTA #3 (1293,0), 5 CTAs running
GPGPU-Sim uArch: Shader 2 finished CTA #4 (1293,0), 4 CTAs running
GPGPU-Sim uArch: Shader 2 finished CTA #5 (1293,0), 3 CTAs running
GPGPU-Sim uArch: core:  2, cta: 3 initialized @(1294,0)
GPGPU-Sim uArch: core:  2, cta: 4 initialized @(1295,0)
GPGPU-Sim uArch: core:  2, cta: 5 initialized @(1296,0)
GPGPU-Sim uArch: Shader 3 finished CTA #3 (1299,0), 5 CTAs running
GPGPU-Sim uArch: Shader 3 finished CTA #4 (1299,0), 4 CTAs running
GPGPU-Sim uArch: Shader 3 finished CTA #5 (1299,0), 3 CTAs running
GPGPU-Sim uArch: core:  3, cta: 3 initialized @(1300,0)
GPGPU-Sim uArch: Shader 7 finished CTA #0 (1300,0), 5 CTAs running
GPGPU-Sim uArch: Shader 7 finished CTA #1 (1300,0), 4 CTAs running
GPGPU-Sim uArch: Shader 7 finished CTA #2 (1300,0), 3 CTAs running
GPGPU-Sim uArch: Shader 7 finished CTA #3 (1300,0), 2 CTAs running
GPGPU-Sim uArch: core:  7, cta: 0 initialized @(1301,0)
GPGPU-Sim uArch: core:  3, cta: 4 initialized @(1301,0)
GPGPU-Sim uArch: Shader 6 finished CTA #0 (1301,0), 5 CTAs running
GPGPU-Sim uArch: Shader 6 finished CTA #1 (1301,0), 4 CTAs running
GPGPU-Sim uArch: Shader 6 finished CTA #2 (1301,0), 3 CTAs running
GPGPU-Sim uArch: core:  6, cta: 0 initialized @(1302,0)
GPGPU-Sim uArch: core:  7, cta: 1 initialized @(1302,0)
GPGPU-Sim uArch: core:  3, cta: 5 initialized @(1302,0)
GPGPU-Sim uArch: core:  6, cta: 1 initialized @(1303,0)
GPGPU-Sim uArch: core:  7, cta: 2 initialized @(1303,0)
GPGPU-Sim uArch: core:  6, cta: 2 initialized @(1304,0)
GPGPU-Sim uArch: core:  7, cta: 3 initialized @(1304,0)
GPGPU-Sim uArch: Shader 8 finished CTA #0 (1309,0), 5 CTAs running
GPGPU-Sim uArch: Shader 8 finished CTA #1 (1309,0), 4 CTAs running
GPGPU-Sim uArch: Shader 8 finished CTA #2 (1309,0), 3 CTAs running
GPGPU-Sim uArch: Shader 8 finished CTA #3 (1309,0), 2 CTAs running
GPGPU-Sim uArch: Shader 10 finished CTA #0 (1309,0), 5 CTAs running
GPGPU-Sim uArch: Shader 10 finished CTA #1 (1309,0), 4 CTAs running
GPGPU-Sim uArch: core:  8, cta: 0 initialized @(1310,0)
GPGPU-Sim uArch: core: 10, cta: 0 initialized @(1310,0)
GPGPU-Sim uArch: core:  8, cta: 1 initialized @(1311,0)
GPGPU-Sim uArch: core: 10, cta: 1 initialized @(1311,0)
GPGPU-Sim uArch: core:  8, cta: 2 initialized @(1312,0)
GPGPU-Sim uArch: core:  8, cta: 3 initialized @(1313,0)
GPGPU-Sim uArch: Shader 4 finished CTA #4 (1313,0), 5 CTAs running
GPGPU-Sim uArch: core:  4, cta: 4 initialized @(1314,0)
GPGPU-Sim uArch: Shader 1 finished CTA #3 (1314,0), 5 CTAs running
GPGPU-Sim uArch: Shader 1 finished CTA #4 (1314,0), 4 CTAs running
GPGPU-Sim uArch: Shader 1 finished CTA #5 (1314,0), 3 CTAs running
GPGPU-Sim uArch: core:  1, cta: 3 initialized @(1315,0)
GPGPU-Sim uArch: core:  1, cta: 4 initialized @(1316,0)
GPGPU-Sim uArch: core:  1, cta: 5 initialized @(1317,0)
GPGPU-Sim uArch: Shader 8 finished CTA #5 (1317,0), 5 CTAs running
GPGPU-Sim uArch: core:  8, cta: 5 initialized @(1318,0)
GPGPU-Sim uArch: Shader 12 finished CTA #0 (1318,0), 5 CTAs running
GPGPU-Sim uArch: Shader 12 finished CTA #1 (1318,0), 4 CTAs running
GPGPU-Sim uArch: Shader 12 finished CTA #2 (1318,0), 3 CTAs running
GPGPU-Sim uArch: core: 12, cta: 0 initialized @(1319,0)
GPGPU-Sim uArch: Shader 5 finished CTA #4 (1319,0), 5 CTAs running
GPGPU-Sim uArch: Shader 5 finished CTA #5 (1319,0), 4 CTAs running
GPGPU-Sim uArch: core:  5, cta: 4 initialized @(1320,0)
GPGPU-Sim uArch: core: 12, cta: 1 initialized @(1320,0)
GPGPU-Sim uArch: core:  5, cta: 5 initialized @(1321,0)
GPGPU-Sim uArch: core: 12, cta: 2 initialized @(1321,0)
GPGPU-Sim uArch: Shader 0 finished CTA #4 (1325,0), 5 CTAs running
GPGPU-Sim uArch: Shader 0 finished CTA #5 (1325,0), 4 CTAs running
GPGPU-Sim uArch: core:  0, cta: 4 initialized @(1326,0)
GPGPU-Sim uArch: core:  0, cta: 5 initialized @(1327,0)
GPGPU-Sim uArch: Shader 9 finished CTA #0 (1327,0), 5 CTAs running
GPGPU-Sim uArch: Shader 9 finished CTA #1 (1327,0), 4 CTAs running
GPGPU-Sim uArch: Shader 9 finished CTA #2 (1327,0), 3 CTAs running
GPGPU-Sim uArch: core:  9, cta: 0 initialized @(1328,0)
GPGPU-Sim uArch: core:  9, cta: 1 initialized @(1329,0)
GPGPU-Sim uArch: core:  9, cta: 2 initialized @(1330,0)
GPGPU-Sim uArch: Shader 14 finished CTA #0 (1334,0), 5 CTAs running
GPGPU-Sim uArch: Shader 14 finished CTA #1 (1334,0), 4 CTAs running
GPGPU-Sim uArch: Shader 14 finished CTA #2 (1334,0), 3 CTAs running
GPGPU-Sim uArch: Shader 14 finished CTA #3 (1334,0), 2 CTAs running
GPGPU-Sim uArch: core: 14, cta: 0 initialized @(1335,0)
GPGPU-Sim uArch: Shader 6 finished CTA #3 (1335,0), 5 CTAs running
GPGPU-Sim uArch: Shader 6 finished CTA #4 (1335,0), 4 CTAs running
GPGPU-Sim uArch: Shader 6 finished CTA #5 (1335,0), 3 CTAs running
GPGPU-Sim uArch: core:  6, cta: 3 initialized @(1336,0)
GPGPU-Sim uArch: core: 14, cta: 1 initialized @(1336,0)
GPGPU-Sim uArch: core:  6, cta: 4 initialized @(1337,0)
GPGPU-Sim uArch: core: 14, cta: 2 initialized @(1337,0)
GPGPU-Sim uArch: Shader 7 finished CTA #4 (1337,0), 5 CTAs running
GPGPU-Sim uArch: Shader 7 finished CTA #5 (1337,0), 4 CTAs running
GPGPU-Sim uArch: core:  6, cta: 5 initialized @(1338,0)
GPGPU-Sim uArch: core:  7, cta: 4 initialized @(1338,0)
GPGPU-Sim uArch: core: 14, cta: 3 initialized @(1338,0)
GPGPU-Sim uArch: Shader 13 finished CTA #0 (1338,0), 5 CTAs running
GPGPU-Sim uArch: Shader 13 finished CTA #1 (1338,0), 4 CTAs running
GPGPU-Sim uArch: Shader 13 finished CTA #2 (1338,0), 3 CTAs running
GPGPU-Sim uArch: Shader 13 finished CTA #3 (1338,0), 2 CTAs running
GPGPU-Sim uArch: core:  7, cta: 5 initialized @(1339,0)
GPGPU-Sim uArch: core: 13, cta: 0 initialized @(1339,0)
GPGPU-Sim uArch: Shader 10 finished CTA #2 (1339,0), 5 CTAs running
GPGPU-Sim uArch: Shader 10 finished CTA #3 (1339,0), 4 CTAs running
GPGPU-Sim uArch: Shader 10 finished CTA #4 (1339,0), 3 CTAs running
GPGPU-Sim uArch: Shader 10 finished CTA #5 (1339,0), 2 CTAs running
GPGPU-Sim uArch: Shader 11 finished CTA #0 (1339,0), 5 CTAs running
GPGPU-Sim uArch: Shader 11 finished CTA #1 (1339,0), 4 CTAs running
GPGPU-Sim uArch: Shader 11 finished CTA #2 (1339,0), 3 CTAs running
GPGPU-Sim uArch: core: 10, cta: 2 initialized @(1340,0)
GPGPU-Sim uArch: core: 11, cta: 0 initialized @(1340,0)
GPGPU-Sim uArch: core: 13, cta: 1 initialized @(1340,0)
GPGPU-Sim uArch: core: 10, cta: 3 initialized @(1341,0)
GPGPU-Sim uArch: core: 11, cta: 1 initialized @(1341,0)
GPGPU-Sim uArch: core: 13, cta: 2 initialized @(1341,0)
GPGPU-Sim uArch: core: 10, cta: 4 initialized @(1342,0)
GPGPU-Sim uArch: core: 11, cta: 2 initialized @(1342,0)
GPGPU-Sim uArch: core: 13, cta: 3 initialized @(1342,0)
GPGPU-Sim uArch: core: 10, cta: 5 initialized @(1343,0)
GPGPU-Sim uArch: Shader 8 finished CTA #4 (1349,0), 5 CTAs running
GPGPU-Sim uArch: core:  8, cta: 4 initialized @(1350,0)
GPGPU-Sim uArch: Shader 12 finished CTA #3 (1353,0), 5 CTAs running
GPGPU-Sim uArch: Shader 12 finished CTA #4 (1353,0), 4 CTAs running
GPGPU-Sim uArch: Shader 12 finished CTA #5 (1353,0), 3 CTAs running
GPGPU-Sim uArch: core: 12, cta: 3 initialized @(1354,0)
GPGPU-Sim uArch: core: 12, cta: 4 initialized @(1355,0)
GPGPU-Sim uArch: core: 12, cta: 5 initialized @(1356,0)
GPGPU-Sim uArch: Shader 9 finished CTA #3 (1365,0), 5 CTAs running
GPGPU-Sim uArch: Shader 9 finished CTA #4 (1365,0), 4 CTAs running
GPGPU-Sim uArch: Shader 9 finished CTA #5 (1365,0), 3 CTAs running
GPGPU-Sim uArch: core:  9, cta: 3 initialized @(1366,0)
GPGPU-Sim uArch: core:  9, cta: 4 initialized @(1367,0)
GPGPU-Sim uArch: Shader 14 finished CTA #4 (1367,0), 5 CTAs running
GPGPU-Sim uArch: Shader 14 finished CTA #5 (1367,0), 4 CTAs running
GPGPU-Sim uArch: core: 14, cta: 4 initialized @(1368,0)
GPGPU-Sim uArch: core:  9, cta: 5 initialized @(1368,0)
GPGPU-Sim uArch: core: 14, cta: 5 initialized @(1369,0)
GPGPU-Sim uArch: Shader 11 finished CTA #3 (1377,0), 5 CTAs running
GPGPU-Sim uArch: Shader 11 finished CTA #4 (1377,0), 4 CTAs running
GPGPU-Sim uArch: Shader 11 finished CTA #5 (1377,0), 3 CTAs running
GPGPU-Sim uArch: core: 11, cta: 3 initialized @(1378,0)
GPGPU-Sim PTX: 400000 instructions simulated : ctaid=(131,0,0) tid=(21,0,0)
GPGPU-Sim uArch: core: 11, cta: 4 initialized @(1379,0)
GPGPU-Sim uArch: Shader 13 finished CTA #4 (1379,0), 5 CTAs running
GPGPU-Sim uArch: Shader 13 finished CTA #5 (1379,0), 4 CTAs running
GPGPU-Sim uArch: core: 13, cta: 4 initialized @(1380,0)
GPGPU-Sim uArch: core: 11, cta: 5 initialized @(1380,0)
GPGPU-Sim uArch: core: 13, cta: 5 initialized @(1381,0)
GPGPU-Sim PTX: 500000 instructions simulated : ctaid=(128,0,0) tid=(50,0,0)
GPGPU-Sim uArch: cycles simulated: 1500  inst.: 465644 (ipc=310.4) sim_rate=155214 (inst/sec) elapsed = 0:0:00:03 / Sun Feb 28 21:33:53 2016
GPGPU-Sim PTX: 600000 instructions simulated : ctaid=(168,0,0) tid=(109,0,0)
GPGPU-Sim uArch: Shader 1 finished CTA #1 (1755,0), 5 CTAs running
GPGPU-Sim uArch: core:  1, cta: 1 initialized @(1756,0)
GPGPU-Sim uArch: Shader 3 finished CTA #0 (1761,0), 5 CTAs running
GPGPU-Sim uArch: core:  3, cta: 0 initialized @(1762,0)
GPGPU-Sim uArch: Shader 2 finished CTA #0 (1778,0), 5 CTAs running
GPGPU-Sim uArch: core:  2, cta: 0 initialized @(1779,0)
GPGPU-Sim uArch: Shader 1 finished CTA #2 (1783,0), 5 CTAs running
GPGPU-Sim uArch: core:  1, cta: 2 initialized @(1784,0)
GPGPU-Sim uArch: Shader 0 finished CTA #0 (1788,0), 5 CTAs running
GPGPU-Sim uArch: core:  0, cta: 0 initialized @(1789,0)
GPGPU-Sim uArch: Shader 4 finished CTA #1 (1789,0), 5 CTAs running
GPGPU-Sim uArch: core:  4, cta: 1 initialized @(1790,0)
GPGPU-Sim uArch: Shader 2 finished CTA #1 (1794,0), 5 CTAs running
GPGPU-Sim uArch: Shader 2 finished CTA #2 (1794,0), 4 CTAs running
GPGPU-Sim uArch: core:  2, cta: 1 initialized @(1795,0)
GPGPU-Sim uArch: Shader 7 finished CTA #0 (1795,0), 5 CTAs running
GPGPU-Sim uArch: core:  7, cta: 0 initialized @(1796,0)
GPGPU-Sim uArch: core:  2, cta: 2 initialized @(1796,0)
GPGPU-Sim uArch: Shader 4 finished CTA #0 (1804,0), 5 CTAs running
GPGPU-Sim uArch: core:  4, cta: 0 initialized @(1805,0)
GPGPU-Sim uArch: Shader 3 finished CTA #1 (1808,0), 5 CTAs running
GPGPU-Sim uArch: core:  3, cta: 1 initialized @(1809,0)
GPGPU-Sim uArch: Shader 6 finished CTA #1 (1809,0), 5 CTAs running
GPGPU-Sim uArch: core:  6, cta: 1 initialized @(1810,0)
GPGPU-Sim uArch: Shader 4 finished CTA #2 (1812,0), 5 CTAs running
GPGPU-Sim uArch: core:  4, cta: 2 initialized @(1813,0)
GPGPU-Sim uArch: Shader 5 finished CTA #0 (1813,0), 5 CTAs running
GPGPU-Sim uArch: core:  5, cta: 0 initialized @(1814,0)
GPGPU-Sim uArch: Shader 10 finished CTA #0 (1816,0), 5 CTAs running
GPGPU-Sim uArch: core: 10, cta: 0 initialized @(1817,0)
GPGPU-Sim uArch: Shader 3 finished CTA #2 (1817,0), 5 CTAs running
GPGPU-Sim uArch: core:  3, cta: 2 initialized @(1818,0)
GPGPU-Sim uArch: Shader 10 finished CTA #1 (1830,0), 5 CTAs running
GPGPU-Sim uArch: core: 10, cta: 1 initialized @(1831,0)
GPGPU-Sim uArch: Shader 5 finished CTA #1 (1833,0), 5 CTAs running
GPGPU-Sim uArch: Shader 5 finished CTA #2 (1833,0), 4 CTAs running
GPGPU-Sim uArch: Shader 5 finished CTA #3 (1833,0), 3 CTAs running
GPGPU-Sim uArch: core:  5, cta: 1 initialized @(1834,0)
GPGPU-Sim uArch: Shader 8 finished CTA #1 (1834,0), 5 CTAs running
GPGPU-Sim uArch: core:  8, cta: 1 initialized @(1835,0)
GPGPU-Sim uArch: core:  5, cta: 2 initialized @(1835,0)
GPGPU-Sim uArch: core:  5, cta: 3 initialized @(1836,0)
GPGPU-Sim uArch: Shader 12 finished CTA #0 (1836,0), 5 CTAs running
GPGPU-Sim uArch: core: 12, cta: 0 initialized @(1837,0)
GPGPU-Sim uArch: Shader 9 finished CTA #1 (1840,0), 5 CTAs running
GPGPU-Sim uArch: core:  9, cta: 1 initialized @(1841,0)
GPGPU-Sim uArch: Shader 4 finished CTA #3 (1843,0), 5 CTAs running
GPGPU-Sim uArch: core:  4, cta: 3 initialized @(1844,0)
GPGPU-Sim uArch: Shader 6 finished CTA #0 (1846,0), 5 CTAs running
GPGPU-Sim uArch: core:  6, cta: 0 initialized @(1847,0)
GPGPU-Sim uArch: Shader 1 finished CTA #3 (1847,0), 5 CTAs running
GPGPU-Sim uArch: core:  1, cta: 3 initialized @(1848,0)
GPGPU-Sim uArch: Shader 0 finished CTA #1 (1848,0), 5 CTAs running
GPGPU-Sim uArch: Shader 0 finished CTA #2 (1848,0), 4 CTAs running
GPGPU-Sim uArch: Shader 0 finished CTA #3 (1848,0), 3 CTAs running
GPGPU-Sim uArch: core:  0, cta: 1 initialized @(1849,0)
GPGPU-Sim uArch: core:  0, cta: 2 initialized @(1850,0)
GPGPU-Sim uArch: Shader 8 finished CTA #0 (1850,0), 5 CTAs running
GPGPU-Sim uArch: core:  8, cta: 0 initialized @(1851,0)
GPGPU-Sim uArch: core:  0, cta: 3 initialized @(1851,0)
GPGPU-Sim uArch: Shader 11 finished CTA #0 (1852,0), 5 CTAs running
GPGPU-Sim uArch: core: 11, cta: 0 initialized @(1853,0)
GPGPU-Sim uArch: Shader 12 finished CTA #1 (1858,0), 5 CTAs running
GPGPU-Sim uArch: core: 12, cta: 1 initialized @(1859,0)
GPGPU-Sim uArch: Shader 13 finished CTA #2 (1859,0), 5 CTAs running
GPGPU-Sim uArch: core: 13, cta: 2 initialized @(1860,0)
GPGPU-Sim uArch: Shader 6 finished CTA #2 (1862,0), 5 CTAs running
GPGPU-Sim uArch: core:  6, cta: 2 initialized @(1863,0)
GPGPU-Sim uArch: Shader 11 finished CTA #2 (1877,0), 5 CTAs running
GPGPU-Sim uArch: Shader 12 finished CTA #2 (1877,0), 5 CTAs running
GPGPU-Sim uArch: core: 11, cta: 2 initialized @(1878,0)
GPGPU-Sim uArch: core: 12, cta: 2 initialized @(1878,0)
GPGPU-Sim uArch: Shader 1 finished CTA #4 (1879,0), 5 CTAs running
GPGPU-Sim uArch: core:  1, cta: 4 initialized @(1880,0)
GPGPU-Sim uArch: Shader 8 finished CTA #2 (1882,0), 5 CTAs running
GPGPU-Sim uArch: Shader 8 finished CTA #3 (1882,0), 4 CTAs running
GPGPU-Sim uArch: core:  8, cta: 2 initialized @(1883,0)
GPGPU-Sim uArch: core:  8, cta: 3 initialized @(1884,0)
GPGPU-Sim uArch: Shader 10 finished CTA #2 (1884,0), 5 CTAs running
GPGPU-Sim uArch: core: 10, cta: 2 initialized @(1885,0)
GPGPU-Sim uArch: Shader 7 finished CTA #1 (1885,0), 5 CTAs running
GPGPU-Sim uArch: Shader 7 finished CTA #2 (1885,0), 4 CTAs running
GPGPU-Sim uArch: Shader 7 finished CTA #3 (1885,0), 3 CTAs running
GPGPU-Sim PTX: 700000 instructions simulated : ctaid=(197,0,0) tid=(107,0,0)
GPGPU-Sim uArch: core:  7, cta: 1 initialized @(1886,0)
GPGPU-Sim uArch: core:  7, cta: 2 initialized @(1887,0)
GPGPU-Sim uArch: Shader 3 finished CTA #4 (1887,0), 5 CTAs running
GPGPU-Sim uArch: core:  3, cta: 4 initialized @(1888,0)
GPGPU-Sim uArch: core:  7, cta: 3 initialized @(1888,0)
GPGPU-Sim uArch: Shader 2 finished CTA #3 (1891,0), 5 CTAs running
GPGPU-Sim uArch: Shader 2 finished CTA #4 (1891,0), 4 CTAs running
GPGPU-Sim uArch: core:  2, cta: 3 initialized @(1892,0)
GPGPU-Sim uArch: core:  2, cta: 4 initialized @(1893,0)
GPGPU-Sim uArch: Shader 9 finished CTA #0 (1894,0), 5 CTAs running
GPGPU-Sim uArch: core:  9, cta: 0 initialized @(1895,0)
GPGPU-Sim uArch: Shader 14 finished CTA #0 (1898,0), 5 CTAs running
GPGPU-Sim uArch: core: 14, cta: 0 initialized @(1899,0)
GPGPU-Sim uArch: Shader 9 finished CTA #2 (1899,0), 5 CTAs running
GPGPU-Sim uArch: core:  9, cta: 2 initialized @(1900,0)
GPGPU-Sim uArch: Shader 14 finished CTA #2 (1902,0), 5 CTAs running
GPGPU-Sim uArch: core: 14, cta: 2 initialized @(1903,0)
GPGPU-Sim uArch: Shader 14 finished CTA #1 (1910,0), 5 CTAs running
GPGPU-Sim uArch: core: 14, cta: 1 initialized @(1911,0)
GPGPU-Sim uArch: Shader 13 finished CTA #0 (1913,0), 5 CTAs running
GPGPU-Sim uArch: core: 13, cta: 0 initialized @(1914,0)
GPGPU-Sim uArch: Shader 3 finished CTA #3 (1916,0), 5 CTAs running
GPGPU-Sim uArch: core:  3, cta: 3 initialized @(1917,0)
GPGPU-Sim uArch: Shader 14 finished CTA #3 (1918,0), 5 CTAs running
GPGPU-Sim uArch: core: 14, cta: 3 initialized @(1919,0)
GPGPU-Sim uArch: Shader 6 finished CTA #3 (1924,0), 5 CTAs running
GPGPU-Sim uArch: core:  6, cta: 3 initialized @(1925,0)
GPGPU-Sim uArch: Shader 13 finished CTA #3 (1929,0), 5 CTAs running
GPGPU-Sim uArch: core: 13, cta: 3 initialized @(1930,0)
GPGPU-Sim uArch: Shader 5 finished CTA #4 (1936,0), 5 CTAs running
GPGPU-Sim uArch: core:  5, cta: 4 initialized @(1937,0)
GPGPU-Sim uArch: Shader 12 finished CTA #3 (1938,0), 5 CTAs running
GPGPU-Sim uArch: core: 12, cta: 3 initialized @(1939,0)
GPGPU-Sim uArch: Shader 9 finished CTA #4 (1939,0), 5 CTAs running
GPGPU-Sim uArch: core:  9, cta: 4 initialized @(1940,0)
GPGPU-Sim uArch: Shader 13 finished CTA #1 (1945,0), 5 CTAs running
GPGPU-Sim uArch: core: 13, cta: 1 initialized @(1946,0)
GPGPU-Sim uArch: Shader 11 finished CTA #3 (1954,0), 5 CTAs running
GPGPU-Sim uArch: core: 11, cta: 3 initialized @(1955,0)
GPGPU-Sim uArch: Shader 4 finished CTA #5 (1958,0), 5 CTAs running
GPGPU-Sim uArch: core:  4, cta: 5 initialized @(1959,0)
GPGPU-Sim uArch: Shader 10 finished CTA #3 (1961,0), 5 CTAs running
GPGPU-Sim uArch: Shader 13 finished CTA #4 (1961,0), 5 CTAs running
GPGPU-Sim uArch: core: 10, cta: 3 initialized @(1962,0)
GPGPU-Sim uArch: core: 13, cta: 4 initialized @(1962,0)
GPGPU-Sim uArch: Shader 7 finished CTA #4 (1966,0), 5 CTAs running
GPGPU-Sim uArch: core:  7, cta: 4 initialized @(1967,0)
GPGPU-Sim uArch: Shader 1 finished CTA #5 (1969,0), 5 CTAs running
GPGPU-Sim uArch: core:  1, cta: 5 initialized @(1970,0)
GPGPU-Sim uArch: Shader 3 finished CTA #5 (1972,0), 5 CTAs running
GPGPU-Sim uArch: Shader 6 finished CTA #4 (1972,0), 5 CTAs running
GPGPU-Sim uArch: core:  3, cta: 5 initialized @(1973,0)
GPGPU-Sim uArch: core:  6, cta: 4 initialized @(1973,0)
GPGPU-Sim uArch: Shader 11 finished CTA #1 (1974,0), 5 CTAs running
GPGPU-Sim uArch: core: 11, cta: 1 initialized @(1975,0)
GPGPU-Sim uArch: Shader 5 finished CTA #5 (1977,0), 5 CTAs running
GPGPU-Sim uArch: core:  5, cta: 5 initialized @(1978,0)
GPGPU-Sim uArch: Shader 2 finished CTA #5 (1984,0), 5 CTAs running
GPGPU-Sim uArch: core:  2, cta: 5 initialized @(1985,0)
GPGPU-Sim uArch: Shader 12 finished CTA #4 (1986,0), 5 CTAs running
GPGPU-Sim uArch: core: 12, cta: 4 initialized @(1987,0)
GPGPU-Sim uArch: Shader 4 finished CTA #4 (1990,0), 5 CTAs running
GPGPU-Sim uArch: Shader 11 finished CTA #4 (1990,0), 5 CTAs running
GPGPU-Sim uArch: core:  4, cta: 4 initialized @(1991,0)
GPGPU-Sim uArch: core: 11, cta: 4 initialized @(1991,0)
GPGPU-Sim uArch: Shader 0 finished CTA #4 (1996,0), 5 CTAs running
GPGPU-Sim uArch: Shader 0 finished CTA #5 (1996,0), 4 CTAs running
GPGPU-Sim uArch: core:  0, cta: 4 initialized @(1997,0)
GPGPU-Sim uArch: core:  0, cta: 5 initialized @(1998,0)
GPGPU-Sim uArch: cycles simulated: 2000  inst.: 734961 (ipc=367.5) sim_rate=183740 (inst/sec) elapsed = 0:0:00:04 / Sun Feb 28 21:33:54 2016
GPGPU-Sim uArch: Shader 10 finished CTA #4 (2003,0), 5 CTAs running
GPGPU-Sim PTX: 800000 instructions simulated : ctaid=(209,0,0) tid=(75,0,0)
GPGPU-Sim uArch: Shader 14 finished CTA #4 (2003,0), 5 CTAs running
GPGPU-Sim uArch: core: 10, cta: 4 initialized @(2004,0)
GPGPU-Sim uArch: Shader 8 finished CTA #4 (2005,0), 5 CTAs running
GPGPU-Sim uArch: Shader 8 finished CTA #5 (2005,0), 4 CTAs running
GPGPU-Sim uArch: Shader 7 finished CTA #5 (2009,0), 5 CTAs running
GPGPU-Sim uArch: Shader 9 finished CTA #3 (2015,0), 5 CTAs running
GPGPU-Sim uArch: Shader 6 finished CTA #5 (2018,0), 5 CTAs running
GPGPU-Sim uArch: Shader 12 finished CTA #5 (2034,0), 5 CTAs running
GPGPU-Sim uArch: Shader 11 finished CTA #5 (2038,0), 5 CTAs running
GPGPU-Sim uArch: Shader 14 finished CTA #5 (2041,0), 4 CTAs running
GPGPU-Sim uArch: Shader 10 finished CTA #5 (2043,0), 5 CTAs running
GPGPU-Sim uArch: Shader 9 finished CTA #5 (2055,0), 4 CTAs running
GPGPU-Sim uArch: Shader 13 finished CTA #5 (2057,0), 5 CTAs running
GPGPU-Sim PTX: 900000 instructions simulated : ctaid=(179,0,0) tid=(231,0,0)
GPGPU-Sim uArch: Shader 1 finished CTA #1 (2137,0), 5 CTAs running
GPGPU-Sim uArch: Shader 7 finished CTA #0 (2198,0), 4 CTAs running
GPGPU-Sim uArch: Shader 3 finished CTA #0 (2205,0), 5 CTAs running
GPGPU-Sim uArch: Shader 6 finished CTA #1 (2215,0), 4 CTAs running
GPGPU-Sim uArch: Shader 1 finished CTA #2 (2217,0), 4 CTAs running
GPGPU-Sim uArch: Shader 0 finished CTA #0 (2224,0), 5 CTAs running
GPGPU-Sim uArch: Shader 10 finished CTA #0 (2240,0), 4 CTAs running
GPGPU-Sim uArch: Shader 9 finished CTA #1 (2254,0), 3 CTAs running
GPGPU-Sim uArch: Shader 4 finished CTA #1 (2268,0), 5 CTAs running
GPGPU-Sim uArch: Shader 11 finished CTA #0 (2269,0), 4 CTAs running
GPGPU-Sim uArch: Shader 5 finished CTA #0 (2279,0), 5 CTAs running
GPGPU-Sim uArch: Shader 10 finished CTA #1 (2282,0), 3 CTAs running
GPGPU-Sim uArch: Shader 12 finished CTA #0 (2296,0), 4 CTAs running
GPGPU-Sim uArch: Shader 2 finished CTA #0 (2300,0), 5 CTAs running
GPGPU-Sim uArch: Shader 1 finished CTA #3 (2305,0), 3 CTAs running
GPGPU-Sim uArch: Shader 4 finished CTA #0 (2311,0), 4 CTAs running
GPGPU-Sim uArch: Shader 2 finished CTA #1 (2319,0), 4 CTAs running
GPGPU-Sim uArch: Shader 2 finished CTA #2 (2320,0), 3 CTAs running
GPGPU-Sim uArch: Shader 3 finished CTA #1 (2322,0), 4 CTAs running
GPGPU-Sim uArch: Shader 4 finished CTA #2 (2324,0), 3 CTAs running
GPGPU-Sim uArch: Shader 6 finished CTA #0 (2332,0), 3 CTAs running
GPGPU-Sim uArch: Shader 3 finished CTA #2 (2335,0), 3 CTAs running
GPGPU-Sim uArch: Shader 5 finished CTA #1 (2335,0), 4 CTAs running
GPGPU-Sim uArch: Shader 13 finished CTA #2 (2344,0), 4 CTAs running
GPGPU-Sim uArch: Shader 1 finished CTA #4 (2346,0), 2 CTAs running
GPGPU-Sim uArch: Shader 5 finished CTA #2 (2348,0), 3 CTAs running
GPGPU-Sim uArch: Shader 8 finished CTA #1 (2348,0), 3 CTAs running
GPGPU-Sim uArch: Shader 0 finished CTA #1 (2349,0), 4 CTAs running
GPGPU-Sim uArch: Shader 8 finished CTA #0 (2352,0), 2 CTAs running
GPGPU-Sim uArch: Shader 11 finished CTA #2 (2355,0), 3 CTAs running
GPGPU-Sim uArch: Shader 0 finished CTA #2 (2356,0), 3 CTAs running
GPGPU-Sim uArch: Shader 12 finished CTA #1 (2356,0), 3 CTAs running
GPGPU-Sim uArch: Shader 6 finished CTA #2 (2363,0), 2 CTAs running
GPGPU-Sim uArch: Shader 7 finished CTA #1 (2367,0), 3 CTAs running
GPGPU-Sim uArch: Shader 14 finished CTA #0 (2373,0), 3 CTAs running
GPGPU-Sim uArch: Shader 10 finished CTA #2 (2379,0), 2 CTAs running
GPGPU-Sim uArch: Shader 8 finished CTA #2 (2383,0), 1 CTAs running
GPGPU-Sim uArch: Shader 9 finished CTA #0 (2386,0), 2 CTAs running
GPGPU-Sim uArch: Shader 12 finished CTA #2 (2389,0), 2 CTAs running
GPGPU-Sim uArch: Shader 7 finished CTA #2 (2392,0), 2 CTAs running
GPGPU-Sim uArch: Shader 14 finished CTA #2 (2392,0), 2 CTAs running
GPGPU-Sim uArch: Shader 8 finished CTA #3 (2396,0), 0 CTAs running
GPGPU-Sim uArch: Shader 8 empty (release kernel 1 '_Z6KernelP4NodePiPbS2_S1_S2_i').
GPGPU-Sim uArch: Shader 5 finished CTA #3 (2398,0), 2 CTAs running
GPGPU-Sim uArch: Shader 4 finished CTA #3 (2401,0), 2 CTAs running
GPGPU-Sim uArch: Shader 9 finished CTA #2 (2401,0), 1 CTAs running
GPGPU-Sim uArch: Shader 3 finished CTA #4 (2408,0), 2 CTAs running
GPGPU-Sim uArch: Shader 7 finished CTA #3 (2409,0), 1 CTAs running
GPGPU-Sim uArch: Shader 1 finished CTA #5 (2410,0), 1 CTAs running
GPGPU-Sim uArch: Shader 14 finished CTA #1 (2416,0), 1 CTAs running
GPGPU-Sim uArch: Shader 6 finished CTA #3 (2420,0), 1 CTAs running
GPGPU-Sim uArch: Shader 0 finished CTA #3 (2422,0), 2 CTAs running
GPGPU-Sim uArch: Shader 2 finished CTA #3 (2424,0), 2 CTAs running
GPGPU-Sim uArch: Shader 9 finished CTA #4 (2426,0), 0 CTAs running
GPGPU-Sim uArch: Shader 9 empty (release kernel 1 '_Z6KernelP4NodePiPbS2_S1_S2_i').
GPGPU-Sim uArch: Shader 2 finished CTA #4 (2427,0), 1 CTAs running
GPGPU-Sim uArch: Shader 10 finished CTA #3 (2428,0), 1 CTAs running
GPGPU-Sim uArch: Shader 13 finished CTA #0 (2432,0), 3 CTAs running
GPGPU-Sim uArch: Shader 3 finished CTA #3 (2433,0), 1 CTAs running
GPGPU-Sim uArch: Shader 14 finished CTA #3 (2435,0), 0 CTAs running
GPGPU-Sim uArch: Shader 14 empty (release kernel 1 '_Z6KernelP4NodePiPbS2_S1_S2_i').
GPGPU-Sim uArch: Shader 7 finished CTA #4 (2444,0), 0 CTAs running
GPGPU-Sim uArch: Shader 7 empty (release kernel 1 '_Z6KernelP4NodePiPbS2_S1_S2_i').
GPGPU-Sim uArch: Shader 12 finished CTA #3 (2446,0), 1 CTAs running
GPGPU-Sim uArch: Shader 5 finished CTA #4 (2451,0), 1 CTAs running
GPGPU-Sim uArch: Shader 4 finished CTA #5 (2454,0), 1 CTAs running
GPGPU-Sim uArch: Shader 6 finished CTA #4 (2454,0), 0 CTAs running
GPGPU-Sim uArch: Shader 6 empty (release kernel 1 '_Z6KernelP4NodePiPbS2_S1_S2_i').
GPGPU-Sim uArch: Shader 10 finished CTA #4 (2456,0), 0 CTAs running
GPGPU-Sim uArch: Shader 10 empty (release kernel 1 '_Z6KernelP4NodePiPbS2_S1_S2_i').
GPGPU-Sim uArch: Shader 11 finished CTA #3 (2457,0), 2 CTAs running
GPGPU-Sim uArch: Shader 0 finished CTA #4 (2460,0), 1 CTAs running
GPGPU-Sim uArch: Shader 2 finished CTA #5 (2461,0), 0 CTAs running
GPGPU-Sim uArch: Shader 2 empty (release kernel 1 '_Z6KernelP4NodePiPbS2_S1_S2_i').
GPGPU-Sim uArch: Shader 4 finished CTA #4 (2467,0), 0 CTAs running
GPGPU-Sim uArch: Shader 4 empty (release kernel 1 '_Z6KernelP4NodePiPbS2_S1_S2_i').
GPGPU-Sim uArch: Shader 3 finished CTA #5 (2470,0), 0 CTAs running
GPGPU-Sim uArch: Shader 3 empty (release kernel 1 '_Z6KernelP4NodePiPbS2_S1_S2_i').
GPGPU-Sim uArch: Shader 12 finished CTA #4 (2471,0), 0 CTAs running
GPGPU-Sim uArch: Shader 12 empty (release kernel 1 '_Z6KernelP4NodePiPbS2_S1_S2_i').
GPGPU-Sim uArch: Shader 13 finished CTA #3 (2471,0), 2 CTAs running
GPGPU-Sim uArch: Shader 5 finished CTA #5 (2476,0), 0 CTAs running
GPGPU-Sim uArch: Shader 5 empty (release kernel 1 '_Z6KernelP4NodePiPbS2_S1_S2_i').
GPGPU-Sim uArch: Shader 0 finished CTA #5 (2477,0), 0 CTAs running
GPGPU-Sim uArch: Shader 0 empty (release kernel 1 '_Z6KernelP4NodePiPbS2_S1_S2_i').
GPGPU-Sim uArch: Shader 11 finished CTA #1 (2477,0), 1 CTAs running
GPGPU-Sim uArch: Shader 13 finished CTA #1 (2486,0), 1 CTAs running
GPGPU-Sim uArch: Shader 11 finished CTA #4 (2487,0), 0 CTAs running
GPGPU-Sim uArch: Shader 11 empty (release kernel 1 '_Z6KernelP4NodePiPbS2_S1_S2_i').
GPGPU-Sim uArch: Shader 13 finished CTA #4 (2500,0), 0 CTAs running
GPGPU-Sim uArch: Shader 13 empty (release kernel 1 '_Z6KernelP4NodePiPbS2_S1_S2_i').
GPGPU-Sim uArch: Shader 1 finished CTA #0 (5745,0), 0 CTAs running
GPGPU-Sim uArch: Shader 1 empty (release kernel 1 '_Z6KernelP4NodePiPbS2_S1_S2_i').
GPGPU-Sim uArch: GPU detected kernel '_Z6KernelP4NodePiPbS2_S1_S2_i' finished on shader 1.
kernel_name = _Z6KernelP4NodePiPbS2_S1_S2_i 
kernel_launch_uid = 1 
gpu_sim_cycle = 5746
gpu_sim_insn = 917736
gpu_ipc =     159.7174
gpu_tot_sim_cycle = 5746
gpu_tot_sim_insn = 917736
gpu_tot_ipc =     159.7174
gpu_tot_issued_cta = 256
gpu_stall_dramfull = 290
gpu_stall_icnt2sh    = 413
gpu_total_sim_rate=229434

========= Core cache stats =========
L1I_cache:
	L1I_total_cache_accesses = 18559
	L1I_total_cache_misses = 962
	L1I_total_cache_miss_rate = 0.0518
	L1I_total_cache_pending_hits = 0
	L1I_total_cache_reservation_fails = 6699
L1D_cache:
	L1D_cache_core[0]: Access = 144, Miss = 36, Miss_rate = 0.250, Pending_hits = 108, Reservation_fails = 0
	L1D_cache_core[1]: Access = 196, Miss = 67, Miss_rate = 0.342, Pending_hits = 96, Reservation_fails = 0
	L1D_cache_core[2]: Access = 144, Miss = 36, Miss_rate = 0.250, Pending_hits = 108, Reservation_fails = 0
	L1D_cache_core[3]: Access = 144, Miss = 36, Miss_rate = 0.250, Pending_hits = 108, Reservation_fails = 0
	L1D_cache_core[4]: Access = 144, Miss = 36, Miss_rate = 0.250, Pending_hits = 108, Reservation_fails = 0
	L1D_cache_core[5]: Access = 144, Miss = 36, Miss_rate = 0.250, Pending_hits = 108, Reservation_fails = 0
	L1D_cache_core[6]: Access = 136, Miss = 34, Miss_rate = 0.250, Pending_hits = 102, Reservation_fails = 0
	L1D_cache_core[7]: Access = 136, Miss = 34, Miss_rate = 0.250, Pending_hits = 102, Reservation_fails = 0
	L1D_cache_core[8]: Access = 128, Miss = 32, Miss_rate = 0.250, Pending_hits = 96, Reservation_fails = 0
	L1D_cache_core[9]: Access = 128, Miss = 32, Miss_rate = 0.250, Pending_hits = 96, Reservation_fails = 0
	L1D_cache_core[10]: Access = 136, Miss = 34, Miss_rate = 0.250, Pending_hits = 102, Reservation_fails = 0
	L1D_cache_core[11]: Access = 136, Miss = 34, Miss_rate = 0.250, Pending_hits = 102, Reservation_fails = 0
	L1D_cache_core[12]: Access = 136, Miss = 34, Miss_rate = 0.250, Pending_hits = 102, Reservation_fails = 0
	L1D_cache_core[13]: Access = 136, Miss = 34, Miss_rate = 0.250, Pending_hits = 102, Reservation_fails = 0
	L1D_cache_core[14]: Access = 128, Miss = 32, Miss_rate = 0.250, Pending_hits = 96, Reservation_fails = 0
	L1D_total_cache_accesses = 2116
	L1D_total_cache_misses = 547
	L1D_total_cache_miss_rate = 0.2585
	L1D_total_cache_pending_hits = 1536
	L1D_total_cache_reservation_fails = 0
	L1D_cache_data_port_util = 0.001
	L1D_cache_fill_port_util = 0.013
L1C_cache:
	L1C_total_cache_accesses = 4115
	L1C_total_cache_misses = 480
	L1C_total_cache_miss_rate = 0.1166
	L1C_total_cache_pending_hits = 0
	L1C_total_cache_reservation_fails = 3172
L1T_cache:
	L1T_total_cache_accesses = 0
	L1T_total_cache_misses = 0
	L1T_total_cache_pending_hits = 0
	L1T_total_cache_reservation_fails = 0

Total_core_cache_stats:
	Total_core_cache_stats_breakdown[GLOBAL_ACC_R][HIT] = 31
	Total_core_cache_stats_breakdown[GLOBAL_ACC_R][HIT_RESERVED] = 1536
	Total_core_cache_stats_breakdown[GLOBAL_ACC_R][MISS] = 523
	Total_core_cache_stats_breakdown[CONST_ACC_R][HIT] = 3635
	Total_core_cache_stats_breakdown[CONST_ACC_R][MISS] = 480
	Total_core_cache_stats_breakdown[CONST_ACC_R][RESERVATION_FAIL] = 3172
	Total_core_cache_stats_breakdown[GLOBAL_ACC_W][HIT] = 2
	Total_core_cache_stats_breakdown[GLOBAL_ACC_W][MISS] = 24
	Total_core_cache_stats_breakdown[INST_ACC_R][HIT] = 17597
	Total_core_cache_stats_breakdown[INST_ACC_R][MISS] = 962
	Total_core_cache_stats_breakdown[INST_ACC_R][RESERVATION_FAIL] = 6699
Shader 0 warp_id issue ditsribution:
warp_id:
0, 1, 2, 3, 4, 5, 6, 7, 8, 9, 10, 11, 12, 13, 14, 15, 16, 17, 18, 19, 20, 21, 22, 23, 24, 25, 26, 27, 28, 29, 30, 31, 32, 33, 34, 35, 36, 37, 38, 39, 40, 41, 42, 43, 44, 45, 46, 47, 
distro:
45, 45, 45, 45, 45, 45, 45, 45, 45, 45, 45, 45, 45, 45, 45, 45, 45, 45, 45, 45, 45, 45, 45, 45, 45, 45, 45, 45, 45, 45, 45, 45, 45, 45, 45, 45, 45, 45, 45, 45, 45, 45, 45, 45, 45, 45, 45, 45, 
gpgpu_n_tot_thrd_icount = 990816
gpgpu_n_tot_w_icount = 30963
gpgpu_n_stall_shd_mem = 3172
gpgpu_n_mem_read_local = 0
gpgpu_n_mem_write_local = 0
gpgpu_n_mem_read_global = 523
gpgpu_n_mem_write_global = 26
gpgpu_n_mem_texture = 0
gpgpu_n_mem_const = 15
gpgpu_n_load_insn  = 65578
gpgpu_n_store_insn = 26
gpgpu_n_shmem_insn = 0
gpgpu_n_tex_insn = 0
gpgpu_n_const_mem_insn = 0
gpgpu_n_param_mem_insn = 131091
gpgpu_n_shmem_bkconflict = 0
gpgpu_n_cache_bkconflict = 0
gpgpu_n_intrawarp_mshr_merge = 0
gpgpu_n_cmem_portconflict = 3172
gpgpu_stall_shd_mem[c_mem][bk_conf] = 3172
gpgpu_stall_shd_mem[c_mem][mshr_rc] = 0
gpgpu_stall_shd_mem[c_mem][icnt_rc] = 0
gpgpu_stall_shd_mem[c_mem][data_port_stall] = 0
gpgpu_stall_shd_mem[t_mem][mshr_rc] = 0
gpgpu_stall_shd_mem[t_mem][icnt_rc] = 0
gpgpu_stall_shd_mem[t_mem][data_port_stall] = 0
gpgpu_stall_shd_mem[s_mem][bk_conf] = 0
gpgpu_stall_shd_mem[gl_mem][bk_conf] = 0
gpgpu_stall_shd_mem[gl_mem][coal_stall] = 0
gpgpu_stall_shd_mem[gl_mem][data_port_stall] = 0
gpgpu_stall_shd_mem[g_mem_ld][mshr_rc] = 0
gpgpu_stall_shd_mem[g_mem_ld][icnt_rc] = 0
gpgpu_stall_shd_mem[g_mem_ld][wb_icnt_rc] = 0
gpgpu_stall_shd_mem[g_mem_ld][wb_rsrv_fail] = 0
gpgpu_stall_shd_mem[g_mem_st][mshr_rc] = 0
gpgpu_stall_shd_mem[g_mem_st][icnt_rc] = 0
gpgpu_stall_shd_mem[g_mem_st][wb_icnt_rc] = 0
gpgpu_stall_shd_mem[g_mem_st][wb_rsrv_fail] = 0
gpgpu_stall_shd_mem[l_mem_ld][mshr_rc] = 0
gpgpu_stall_shd_mem[l_mem_ld][icnt_rc] = 0
gpgpu_stall_shd_mem[l_mem_ld][wb_icnt_rc] = 0
gpgpu_stall_shd_mem[l_mem_ld][wb_rsrv_fail] = 0
gpgpu_stall_shd_mem[l_mem_st][mshr_rc] = 0
gpgpu_stall_shd_mem[l_mem_st][icnt_rc] = 0
gpgpu_stall_shd_mem[l_mem_ld][wb_icnt_rc] = 0
gpgpu_stall_shd_mem[l_mem_ld][wb_rsrv_fail] = 0
gpu_reg_bank_conflict_stalls = 0
Warp Occupancy Distribution:
Stall:7201	W0_Idle:18466	W0_Scoreboard:23730	W1:243	W2:0	W3:0	W4:0	W5:0	W6:0	W7:0	W8:0	W9:0	W10:0	W11:0	W12:0	W13:0	W14:0	W15:0	W16:0	W17:0	W18:0	W19:0	W20:0	W21:0	W22:0	W23:0	W24:0	W25:0	W26:0	W27:0	W28:0	W29:0	W30:0	W31:0	W32:30720
traffic_breakdown_coretomem[CONST_ACC_R] = 120 {8:15,}
traffic_breakdown_coretomem[GLOBAL_ACC_R] = 4184 {8:523,}
traffic_breakdown_coretomem[GLOBAL_ACC_W] = 1040 {40:26,}
traffic_breakdown_coretomem[INST_ACC_R] = 256 {8:32,}
traffic_breakdown_memtocore[CONST_ACC_R] = 1080 {72:15,}
traffic_breakdown_memtocore[GLOBAL_ACC_R] = 71128 {136:523,}
traffic_breakdown_memtocore[GLOBAL_ACC_W] = 208 {8:26,}
traffic_breakdown_memtocore[INST_ACC_R] = 4352 {136:32,}
maxmrqlatency = 26 
maxdqlatency = 0 
maxmflatency = 341 
averagemflatency = 266 
max_icnt2mem_latency = 36 
max_icnt2sh_latency = 5745 
mrq_lat_table:231 	7 	25 	23 	4 	0 	0 	0 	0 	0 	0 	0 	0 	0 	0 	0 	0 	0 	0 	0 	0 	0 	0 	0 	0 	0 	0 	0 	0 	0 	0 	0 	
dq_lat_table:0 	0 	0 	0 	0 	0 	0 	0 	0 	0 	0 	0 	0 	0 	0 	0 	0 	0 	0 	0 	0 	0 	0 	0 	0 	0 	0 	0 	0 	0 	0 	0 	
mf_lat_table:0 	0 	0 	0 	0 	0 	0 	76 	488 	0 	0 	0 	0 	0 	0 	0 	0 	0 	0 	0 	0 	0 	0 	0 	0 	0 	0 	0 	0 	0 	0 	0 	
icnt2mem_lat_table:0 	0 	0 	585 	8 	3 	0 	0 	0 	0 	0 	0 	0 	0 	0 	0 	0 	0 	0 	0 	0 	0 	0 	0 	
icnt2sh_lat_table:0 	0 	0 	191 	312 	35 	0 	0 	0 	0 	2 	11 	13 	0 	0 	0 	0 	0 	0 	0 	0 	0 	0 	0 	
mf_lat_pw_table:0 	0 	0 	0 	0 	0 	0 	6 	4 	0 	0 	0 	0 	0 	0 	0 	0 	0 	0 	0 	0 	0 	0 	0 	0 	0 	0 	0 	0 	0 	0 	0 	
maximum concurrent accesses to same row:
dram[0]:         1         0         0         0         0         0         0         0         0         0         0         0         0         0         0         0 
dram[1]:         0         0         0         0         0         0         0         0         0         0         0         0         0         0         0         0 
dram[2]:         0         0         0         0         0         0         0         0         0         0         0         0         0         0         0         0 
dram[3]:         0         0         0         0         0         0         0         0         0         0         0         0         0         0         0         0 
dram[4]:         0         0         0         0         0         0         0         0         0         0        11        11         0         0         0         0 
dram[5]:         0         0         0         0         0         0         0         0         0         0         0         0         0         0         0         0 
maximum service time to same row:
dram[0]:      1985         0      5727         0         0         0         0         0         0         0       934       899      1754      1794         0         0 
dram[1]:      1182         0         0         0         0         0         0         0         0         0       938       906      1763      1751         0      3766 
dram[2]:         0         0         0      2881         0      1412         0         0         0      4104       941       910      1763      1382         0         0 
dram[3]:         0         0         0      4910         0      4507         0         0         0         0       947       919      1738      1760         0         0 
dram[4]:         0      3693         0         0         0      5313         0         0         0         0      1038      2377      1749      1791      2951         0 
dram[5]:         0         0         0         0         0         0         0         0         0         0       918       922      1759      1768      5387         0 
average row accesses per activate:
dram[0]:  1.000000      -nan  2.000000      -nan      -nan      -nan      -nan      -nan      -nan      -nan 10.000000 11.000000 11.000000 11.000000      -nan      -nan 
dram[1]:  1.000000      -nan      -nan      -nan      -nan      -nan      -nan      -nan      -nan      -nan 10.000000 11.000000 13.000000 11.000000      -nan  3.000000 
dram[2]:      -nan      -nan      -nan  2.000000      -nan  1.000000      -nan      -nan      -nan  2.000000 10.000000 11.000000 11.000000 12.000000      -nan      -nan 
dram[3]:      -nan      -nan      -nan  2.000000      -nan  2.000000      -nan      -nan      -nan      -nan 10.000000 11.000000 11.000000 10.000000      -nan      -nan 
dram[4]:      -nan  2.000000      -nan      -nan      -nan  2.000000      -nan      -nan      -nan      -nan  4.666667  6.500000 11.000000 10.000000  2.000000      -nan 
dram[5]:      -nan      -nan      -nan      -nan      -nan      -nan      -nan      -nan      -nan      -nan 11.000000 11.000000 11.000000 10.000000  1.000000      -nan 
average row locality = 290/42 = 6.904762
number of total memory accesses made:
dram[0]:         0         0         0         0         0         0         0         0         0         0         0         0         0         0         0         0 
dram[1]:         0         0         0         0         0         0         0         0         0         0         0         0         0         0         0         0 
dram[2]:         0         0         0         0         0         0         0         0         0         0         0         0         0         0         0         0 
dram[3]:         0         0         0         0         0         0         0         0         0         0         0         0         0         0         0         0 
dram[4]:         0         0         0         0         0         0         0         0         0         0         0         0         0         0         0         0 
dram[5]:         0         0         0         0         0         0         0         0         0         0         0         0         0         0         0         0 
total accesses: 0
min_bank_accesses = 0!
min_chip_accesses = 0!
number of total read accesses:
dram[0]:         3         0         1         0         0         0         0         0         0         0        10        11        11        11         0         0 
dram[1]:         1         0         0         0         0         0         0         0         0         0        10        11        13        11         0         3 
dram[2]:         0         0         0         1         0         1         0         0         0         1        10        11        11        11         0         0 
dram[3]:         0         0         0         1         0         1         0         0         0         0        10        11        11        10         0         0 
dram[4]:         0         1         0         0         0         1         0         0         0         0        13        12        11        10         2         0 
dram[5]:         0         0         0         0         0         0         0         0         0         0        11        11        11        10         1         0 
total reads: 280
min_bank_accesses = 0!
chip skew: 50/44 = 1.14
number of total write accesses:
dram[0]:         0         0         1         0         0         0         0         0         0         0         0         0         0         0         0         0 
dram[1]:         0         0         0         0         0         0         0         0         0         0         0         0         0         0         0         0 
dram[2]:         0         0         0         1         0         0         0         0         0         1         0         0         0         1         0         0 
dram[3]:         0         0         0         1         0         1         0         0         0         0         0         0         0         0         0         0 
dram[4]:         0         1         0         0         0         1         0         0         0         0         1         1         0         0         0         0 
dram[5]:         0         0         0         0         0         0         0         0         0         0         0         0         0         0         0         0 
total reads: 10
min_bank_accesses = 0!
min_chip_accesses = 0!
average mf latency per bank:
dram[0]:       1407    none         126    none      none      none      none      none      none      none         536       543       568       531    none      none  
dram[1]:          0    none      none      none      none      none      none      none      none      none         565       544       483       556    none         266
dram[2]:     none      none      none         126    none         273    none      none      none         125       553       532       543       474    none      none  
dram[3]:     none      none      none         125    none         125    none      none      none      none         555       573       556       542    none      none  
dram[4]:     none         126    none      none      none         125    none      none      none      none         537       486       528       534       267    none  
dram[5]:     none      none      none      none      none      none      none      none      none      none         537       541       561       535       273    none  
maximum mf latency per bank:
dram[0]:        283         0       252         0         0         0         0         0         0         0       288       280       308       288         0         0
dram[1]:          0         0         0         0         0         0         0         0         0         0       297       303       285       341         0       272
dram[2]:          0         0         0       252         0       273         0         0         0       251       308       291       312       297         0         0
dram[3]:          0         0         0       251         0       251         0         0         0         0       291       298       287       305         0         0
dram[4]:          0       252         0         0         0       251         0         0         0         0       290       290       288       285       272         0
dram[5]:          0         0         0         0         0         0         0         0         0         0       306       287       327       288       273         0

Number of Memory Banks Accessed per Memory Operation per Warp (from 0):
0	0	0	0	0	0	0	0	0	0	0	0	0	0	0	0	0	0	0	0	0	0	0	0	0	0	0	0	0	0	0	0	0	0	0	0	0	0	0	0	0	0	0	0	0	0	0	0	0	0	0	0	0	0	0	0	0	0	0	0	0	0	0	0	0	0	0	0	0	0	0	0	0	0	0	0	0	0	0	0	0	0	0	0	0	0	0	0	0	0	0	0	0	0	0	0	
Average # of Memory Banks Accessed per Memory Operation per Warp=-nan

position of mrq chosen
0	0	0	0	0	0	0	0	0	0	0	0	0	0	0	0	

average position of mrq chosen = -nan
Memory Partition 0: 
Cache L2_bank_000:
MSHR contents
MSHR: tag=0x80234400, atomic=0 1 entries : 0x7f36ffc52cb0 :  mf: uid= 34671, sid01:w00, part=0, addr=0x80234440, load , size=32, unknown  status = IN_PARTITION_DRAM (5745), 

Cache L2_bank_001:
MSHR contents

In Dram Latency Queue (total = 0): 
DRAM[0]: 16 bks, busW=4 BL=8 CL=12, tRRD=2 tCCD=6, tRCD=12 tRAS=28 tRP=12 tRC=40
n_cmd=7584 n_nop=7386 n_act=8 n_pre=2 n_req=48 n_rd=187 n_write=1 bw_util=0.04958
n_activity=906 dram_eff=0.415
bk0: 12a 7493i bk1: 0a 7581i bk2: 3a 7559i bk3: 0a 7583i bk4: 0a 7584i bk5: 0a 7584i bk6: 0a 7585i bk7: 0a 7585i bk8: 0a 7586i bk9: 0a 7586i bk10: 40a 7466i bk11: 44a 7419i bk12: 44a 7445i bk13: 44a 7434i bk14: 0a 7582i bk15: 0a 7582i 
dram_util_bins: 0 0 0 0 0 0 0 0 0 0
dram_eff_bins: 0 0 0 0 0 0 0 0 0 0
mrqq: max=1 avg=0.0106804
Memory Partition 1: 
Cache L2_bank_002:
MSHR contents

Cache L2_bank_003:
MSHR contents

In Dram Latency Queue (total = 0): 
DRAM[1]: 16 bks, busW=4 BL=8 CL=12, tRRD=2 tCCD=6, tRCD=12 tRAS=28 tRP=12 tRC=40
n_cmd=7584 n_nop=7382 n_act=6 n_pre=0 n_req=49 n_rd=196 n_write=0 bw_util=0.05169
n_activity=846 dram_eff=0.4634
bk0: 4a 7558i bk1: 0a 7581i bk2: 0a 7581i bk3: 0a 7581i bk4: 0a 7582i bk5: 0a 7582i bk6: 0a 7584i bk7: 0a 7585i bk8: 0a 7587i bk9: 0a 7588i bk10: 40a 7468i bk11: 44a 7374i bk12: 52a 7420i bk13: 44a 7381i bk14: 0a 7583i bk15: 12a 7540i 
dram_util_bins: 0 0 0 0 0 0 0 0 0 0
dram_eff_bins: 0 0 0 0 0 0 0 0 0 0
mrqq: max=2 avg=0.0158228
Memory Partition 2: 
Cache L2_bank_004:
MSHR contents

Cache L2_bank_005:
MSHR contents

In Dram Latency Queue (total = 0): 
DRAM[2]: 16 bks, busW=4 BL=8 CL=12, tRRD=2 tCCD=6, tRCD=12 tRAS=28 tRP=12 tRC=40
n_cmd=7584 n_nop=7390 n_act=7 n_pre=0 n_req=49 n_rd=184 n_write=3 bw_util=0.04931
n_activity=813 dram_eff=0.46
bk0: 0a 7583i bk1: 0a 7584i bk2: 0a 7584i bk3: 4a 7556i bk4: 0a 7584i bk5: 4a 7562i bk6: 0a 7584i bk7: 0a 7585i bk8: 0a 7587i bk9: 4a 7558i bk10: 40a 7464i bk11: 44a 7398i bk12: 44a 7431i bk13: 44a 7369i bk14: 0a 7582i bk15: 0a 7582i 
dram_util_bins: 0 0 0 0 0 0 0 0 0 0
dram_eff_bins: 0 0 0 0 0 0 0 0 0 0
mrqq: max=3 avg=0.0216245
Memory Partition 3: 
Cache L2_bank_006:
MSHR contents

Cache L2_bank_007:
MSHR contents

In Dram Latency Queue (total = 0): 
DRAM[3]: 16 bks, busW=4 BL=8 CL=12, tRRD=2 tCCD=6, tRCD=12 tRAS=28 tRP=12 tRC=40
n_cmd=7584 n_nop=7400 n_act=6 n_pre=0 n_req=46 n_rd=176 n_write=2 bw_util=0.04694
n_activity=728 dram_eff=0.489
bk0: 0a 7584i bk1: 0a 7585i bk2: 0a 7585i bk3: 4a 7556i bk4: 0a 7584i bk5: 4a 7555i bk6: 0a 7582i bk7: 0a 7584i bk8: 0a 7586i bk9: 0a 7586i bk10: 40a 7460i bk11: 44a 7414i bk12: 44a 7416i bk13: 40a 7391i bk14: 0a 7580i bk15: 0a 7582i 
dram_util_bins: 0 0 0 0 0 0 0 0 0 0
dram_eff_bins: 0 0 0 0 0 0 0 0 0 0
mrqq: max=2 avg=0.0181962
Memory Partition 4: 
Cache L2_bank_008:
MSHR contents

Cache L2_bank_009:
MSHR contents

In Dram Latency Queue (total = 0): 
DRAM[4]: 16 bks, busW=4 BL=8 CL=12, tRRD=2 tCCD=6, tRCD=12 tRAS=28 tRP=12 tRC=40
n_cmd=7584 n_nop=7367 n_act=10 n_pre=3 n_req=54 n_rd=200 n_write=4 bw_util=0.0538
n_activity=976 dram_eff=0.418
bk0: 0a 7581i bk1: 4a 7555i bk2: 0a 7582i bk3: 0a 7584i bk4: 0a 7584i bk5: 4a 7556i bk6: 0a 7584i bk7: 0a 7586i bk8: 0a 7587i bk9: 0a 7589i bk10: 52a 7372i bk11: 48a 7332i bk12: 44a 7430i bk13: 40a 7432i bk14: 8a 7548i bk15: 0a 7580i 
dram_util_bins: 0 0 0 0 0 0 0 0 0 0
dram_eff_bins: 0 0 0 0 0 0 0 0 0 0
mrqq: max=1 avg=0.0146361
Memory Partition 5: 
Cache L2_bank_010:
MSHR contents

Cache L2_bank_011:
MSHR contents

In Dram Latency Queue (total = 0): 
DRAM[5]: 16 bks, busW=4 BL=8 CL=12, tRRD=2 tCCD=6, tRCD=12 tRAS=28 tRP=12 tRC=40
n_cmd=7584 n_nop=7403 n_act=5 n_pre=0 n_req=44 n_rd=176 n_write=0 bw_util=0.04641
n_activity=689 dram_eff=0.5109
bk0: 0a 7581i bk1: 0a 7583i bk2: 0a 7584i bk3: 0a 7584i bk4: 0a 7584i bk5: 0a 7585i bk6: 0a 7585i bk7: 0a 7585i bk8: 0a 7585i bk9: 0a 7586i bk10: 44a 7456i bk11: 44a 7401i bk12: 44a 7450i bk13: 40a 7423i bk14: 4a 7560i bk15: 0a 7581i 
dram_util_bins: 0 0 0 0 0 0 0 0 0 0
dram_eff_bins: 0 0 0 0 0 0 0 0 0 0
mrqq: max=1 avg=0.0039557

========= L2 cache stats =========
L2_cache_bank[0]: Access = 77, Miss = 25, Miss_rate = 0.325, Pending_hits = 27, Reservation_fails = 231
L2_cache_bank[1]: Access = 44, Miss = 22, Miss_rate = 0.500, Pending_hits = 22, Reservation_fails = 0
L2_cache_bank[2]: Access = 61, Miss = 24, Miss_rate = 0.393, Pending_hits = 24, Reservation_fails = 107
L2_cache_bank[3]: Access = 47, Miss = 25, Miss_rate = 0.532, Pending_hits = 22, Reservation_fails = 0
L2_cache_bank[4]: Access = 42, Miss = 21, Miss_rate = 0.500, Pending_hits = 21, Reservation_fails = 0
L2_cache_bank[5]: Access = 46, Miss = 25, Miss_rate = 0.543, Pending_hits = 21, Reservation_fails = 0
L2_cache_bank[6]: Access = 45, Miss = 21, Miss_rate = 0.467, Pending_hits = 21, Reservation_fails = 0
L2_cache_bank[7]: Access = 46, Miss = 23, Miss_rate = 0.500, Pending_hits = 21, Reservation_fails = 0
L2_cache_bank[8]: Access = 56, Miss = 26, Miss_rate = 0.464, Pending_hits = 22, Reservation_fails = 0
L2_cache_bank[9]: Access = 45, Miss = 24, Miss_rate = 0.533, Pending_hits = 21, Reservation_fails = 0
L2_cache_bank[10]: Access = 45, Miss = 23, Miss_rate = 0.511, Pending_hits = 22, Reservation_fails = 0
L2_cache_bank[11]: Access = 42, Miss = 21, Miss_rate = 0.500, Pending_hits = 21, Reservation_fails = 0
L2_total_cache_accesses = 596
L2_total_cache_misses = 280
L2_total_cache_miss_rate = 0.4698
L2_total_cache_pending_hits = 265
L2_total_cache_reservation_fails = 338
L2_total_cache_breakdown:
	L2_cache_stats_breakdown[GLOBAL_ACC_R][HIT_RESERVED] = 256
	L2_cache_stats_breakdown[GLOBAL_ACC_R][MISS] = 267
	L2_cache_stats_breakdown[CONST_ACC_R][HIT] = 11
	L2_cache_stats_breakdown[CONST_ACC_R][HIT_RESERVED] = 3
	L2_cache_stats_breakdown[CONST_ACC_R][MISS] = 1
	L2_cache_stats_breakdown[CONST_ACC_R][RESERVATION_FAIL] = 111
	L2_cache_stats_breakdown[GLOBAL_ACC_W][HIT] = 16
	L2_cache_stats_breakdown[GLOBAL_ACC_W][MISS] = 10
	L2_cache_stats_breakdown[INST_ACC_R][HIT] = 24
	L2_cache_stats_breakdown[INST_ACC_R][HIT_RESERVED] = 6
	L2_cache_stats_breakdown[INST_ACC_R][MISS] = 2
	L2_cache_stats_breakdown[INST_ACC_R][RESERVATION_FAIL] = 227
L2_cache_data_port_util = 0.002
L2_cache_fill_port_util = 0.032

icnt_total_pkts_mem_to_simt=2846
icnt_total_pkts_simt_to_mem=622
LD_mem_lat_dist  0 0 0 0 0 0 0 0 0 0 0 0 0 0 0 0 0 0 0 0 0 0 0 0 0 0 0
ST_mem_lat_dist  0 0 0 0 0 0 0 0 0 0 0 0 0 0 0 0 0 0 0 0 0 0 0 0 0 0 0
----------------------------Interconnect-DETAILS--------------------------------
Class 0:
Packet latency average = 11.4237
	minimum = 6
	maximum = 58
Network latency average = 10.0067
	minimum = 6
	maximum = 45
Slowest packet = 14
Flit latency average = 8.98356
	minimum = 6
	maximum = 41
Slowest flit = 1978
Fragmentation average = 0
	minimum = 0
	maximum = 0
Injected packet rate average = 0.00768328
	minimum = 0.00609119 (at node 8)
	maximum = 0.0134006 (at node 15)
Accepted packet rate average = 0.00768328
	minimum = 0.00609119 (at node 8)
	maximum = 0.0134006 (at node 15)
Injected flit rate average = 0.0223537
	minimum = 0.00609119 (at node 8)
	maximum = 0.0596937 (at node 15)
Accepted flit rate average= 0.0223537
	minimum = 0.00730943 (at node 19)
	maximum = 0.045945 (at node 1)
Injected packet length average = 2.9094
Accepted packet length average = 2.9094
Total in-flight flits = 0 (0 measured)
====== Overall Traffic Statistics ======
====== Traffic class 0 ======
Packet latency average = 11.4237 (1 samples)
	minimum = 6 (1 samples)
	maximum = 58 (1 samples)
Network latency average = 10.0067 (1 samples)
	minimum = 6 (1 samples)
	maximum = 45 (1 samples)
Flit latency average = 8.98356 (1 samples)
	minimum = 6 (1 samples)
	maximum = 41 (1 samples)
Fragmentation average = 0 (1 samples)
	minimum = 0 (1 samples)
	maximum = 0 (1 samples)
Injected packet rate average = 0.00768328 (1 samples)
	minimum = 0.00609119 (1 samples)
	maximum = 0.0134006 (1 samples)
Accepted packet rate average = 0.00768328 (1 samples)
	minimum = 0.00609119 (1 samples)
	maximum = 0.0134006 (1 samples)
Injected flit rate average = 0.0223537 (1 samples)
	minimum = 0.00609119 (1 samples)
	maximum = 0.0596937 (1 samples)
Accepted flit rate average = 0.0223537 (1 samples)
	minimum = 0.00730943 (1 samples)
	maximum = 0.045945 (1 samples)
Injected packet size average = 2.9094 (1 samples)
Accepted packet size average = 2.9094 (1 samples)
Hops average = 1 (1 samples)
----------------------------END-of-Interconnect-DETAILS-------------------------


gpgpu_simulation_time = 0 days, 0 hrs, 0 min, 4 sec (4 sec)
gpgpu_simulation_rate = 229434 (inst/sec)
gpgpu_simulation_rate = 1436 (cycle/sec)
GPGPU-Sim: synchronize waiting for inactive GPU simulation
GPGPU-Sim API: Stream Manager State
GPGPU-Sim: detected inactive GPU simulation thread

GPGPU-Sim PTX: cudaLaunch for 0x0x405636 (mode=performance simulation) on stream 0
[...]
traffic_breakdown_coretomem[GLOBAL_ACC_W] = 16548344 {40:412970,72:76,136:177,}
traffic_breakdown_coretomem[INST_ACC_R] = 480 {8:60,}
traffic_breakdown_memtocore[CONST_ACC_R] = 1080 {72:15,}
traffic_breakdown_memtocore[GLOBAL_ACC_R] = 84585200 {136:621950,}
traffic_breakdown_memtocore[GLOBAL_ACC_W] = 3305784 {8:413223,}
traffic_breakdown_memtocore[INST_ACC_R] = 8160 {136:60,}
maxmrqlatency = 628 
maxdqlatency = 0 
maxmflatency = 1332 
averagemflatency = 395 
max_icnt2mem_latency = 906 
max_icnt2sh_latency = 762372 
mrq_lat_table:21258 	162 	439 	638 	685 	364 	266 	234 	73 	2 	0 	0 	0 	0 	0 	0 	0 	0 	0 	0 	0 	0 	0 	0 	0 	0 	0 	0 	0 	0 	0 	0 	
dq_lat_table:0 	0 	0 	0 	0 	0 	0 	0 	0 	0 	0 	0 	0 	0 	0 	0 	0 	0 	0 	0 	0 	0 	0 	0 	0 	0 	0 	0 	0 	0 	0 	0 	
mf_lat_table:0 	0 	0 	0 	0 	0 	0 	133351 	713900 	187867 	70 	0 	0 	0 	0 	0 	0 	0 	0 	0 	0 	0 	0 	0 	0 	0 	0 	0 	0 	0 	0 	0 	
icnt2mem_lat_table:0 	0 	0 	83505 	29903 	79120 	323236 	244589 	270540 	4355 	0 	0 	0 	0 	0 	0 	0 	0 	0 	0 	0 	0 	0 	0 	
icnt2sh_lat_table:0 	0 	0 	35970 	295672 	271864 	18355 	104 	0 	0 	2 	11 	40 	978 	9424 	18145 	44139 	99241 	168484 	72759 	0 	0 	0 	0 	
mf_lat_pw_table:0 	0 	0 	0 	0 	0 	0 	94 	1433 	3 	0 	0 	0 	0 	0 	0 	0 	0 	0 	0 	0 	0 	0 	0 	0 	0 	0 	0 	0 	0 	0 	0 	
maximum concurrent accesses to same row:
dram[0]:        16        16        16        16        16        16        16        19        16        16        16        16        16        16        16        16 
dram[1]:        16        16        22        16        16        16        17        16        16        16        16        16        16        16        16        16 
dram[2]:        17        17        18        16        16        16        16        16        16        16        16        16        16        16        16        16 
dram[3]:        24        16        16        16        16        16        18        16        24        16        16        16        16        16        16        16 
dram[4]:        16        16        16        16        16        16        16        16        16        20        16        16        16        16        16        16 
dram[5]:        16        16        16        16        16        16        16        16        16        16        16        16        16        16        16        16 
maximum service time to same row:
dram[0]:     84206     84258    124903    124229    127792    127831    155749    156077    117969    113708    102345    102888    102990    101171     92064     93033 
dram[1]:    104112     95845    124200    123782    127853    128028     98884    102005    105053    153680    118068    112644     83757     91400     85988     96812 
dram[2]:     89400     87154    117906    117990    127834    125282    152628    153656    123134    138855    102689    102876     94213    101206    133633    143994 
dram[3]:    145359    150751    118004    117983    129191    126015    101835    105403    102399    117713    108009    135444     73793     83357     67772    130272 
dram[4]:    118869    112044    117592    116573    144344    144486    151982    152137    153898    112549    101579    102037    115368     95672    131023     92941 
dram[5]:    150647    155586    118120    118375    144997    145022    100939    101345    104297    105763    104778    105500     95944     86300    140743    133257 
average row accesses per activate:
dram[0]:  4.461538  4.178571  4.196429  4.189655  4.962264  5.404255  3.465116  4.068493  6.063830  5.444445  3.588235  3.128205  4.035088  3.947368  9.347826  7.333333 
dram[1]:  5.288889  5.785714  5.200000  4.745098  4.060606  3.486842  4.253731  4.191781  4.027397  4.070423  4.636364  4.803922  3.287879  4.092593  4.744681  5.538462 
dram[2]:  4.823529  4.433962  4.050848  3.933333  5.382979  4.678571  6.195652  6.204082  4.718750  4.126760  3.297297  3.521127  4.313725  3.393939  4.866667  4.604167 
dram[3]:  4.836735  4.833333  6.205128  5.581395  3.984127  3.921875  5.407407  4.378788  4.313433  4.101449  3.383562  3.686567  3.982456  4.377358  5.414634  4.888889 
dram[4]:  7.838710  6.971428  4.666667  4.000000  4.517857  4.833333  4.629032  5.071429  6.319149  6.386364  3.493151  4.172414  4.222222  3.446154  9.500000  7.629630 
dram[5]:  4.615385  3.422535  3.025000  2.809524  4.283333  3.753425  4.171429  5.425926  3.721519  3.773333  4.080645  4.938776  3.879310  3.476191  5.833333  4.955555 
average row locality = 24121/5432 = 4.440537
number of total memory accesses made:
dram[0]:         0         0         0         0         0         0         0         0         0         0         0         0         0         0         0         0 
dram[1]:         0         0         0         0         0         0         0         0         0         0         0         0         0         0         0         0 
dram[2]:         0         0         0         0         0         0         0         0         0         0         0         0         0         0         0         0 
dram[3]:         0         0         0         0         0         0         0         0         0         0         0         0         0         0         0         0 
dram[4]:         0         0         0         0         0         0         0         0         0         0         0         0         0         0         0         0 
dram[5]:         0         0         0         0         0         0         0         0         0         0         0         0         0         0         0         0 
total accesses: 0
min_bank_accesses = 0!
min_chip_accesses = 0!
number of total read accesses:
dram[0]:       215       216       215       225       237       229       267       267       259       268       233       237       225       221       215       220 
dram[1]:       220       222       214       221       238       237       256       275       265       263       243       236       216       220       223       216 
dram[2]:       226       216       219       218       227       239       259       273       274       267       235       241       219       220       219       221 
dram[3]:       219       214       222       222       223       227       259       257       265       257       238       238       220       225       222       220 
dram[4]:       223       225       219       219       223       230       259       257       271       256       245       234       223       221       228       206 
dram[5]:       223       221       224       218       232       241       261       265       268       258       243       234       219       217       210       223 
total reads: 22511
bank skew: 275/206 = 1.33
chip skew: 3773/3728 = 1.01
number of total write accesses:
dram[0]:        17        18        20        18        26        25        31        30        26        26        11         7         5         4         0         0 
dram[1]:        18        21        20        21        30        28        29        31        29        26        12         9         1         1         0         0 
dram[2]:        20        19        20        18        26        23        26        31        28        26         9         9         1         4         0         0 
dram[3]:        18        18        20        18        28        24        33        32        24        26         9         9         7         7         0         0 
dram[4]:        20        19        19        17        30        31        28        27        26        25        10         8         5         3         0         0 
dram[5]:        17        22        18        18        25        33        31        28        26        25        10         8         6         2         0         0 
total reads: 1610
min_bank_accesses = 0!
chip skew: 276/260 = 1.06
average mf latency per bank:
dram[0]:       8580      8653      9543      9372      8848      9040      8244      8033      7665      7520     17166     17473     28365     29118     42029     41674
dram[1]:       8694      8661      9616      9761      8945      9320      8858      8474      7930      8094     16121     18108     30557     31136     42319     44440
dram[2]:       8435      8756      9196      9533      9254      9251      8436      8115      7627      8103     16987     18389     29821     31176     41027     43150
dram[3]:       8660      8698      9296      9464      9085      9309      8342      8240      7828      7770     16885     17199     29010     29265     41655     42447
dram[4]:      10934      8363     12505      9603     12180      9068     11306      8407     10117      7754    102023     18117     38709     30806     54030     45069
dram[5]:       8294      8556      9098      9903      8718      8646      7870      8235      7312      8247     16876     18238     28471     31694     42044     42182
maximum mf latency per bank:
dram[0]:        895       808       980       905       889       857       844       871       883       916       833       926      1088      1138      1061      1035
dram[1]:        942       914       965       892       851       911       963       910       885       932       888       961       916       937      1025      1057
dram[2]:        884       857       953       945       964       996       885       911       929       944       988      1026       933      1129       922      1072
dram[3]:        955       872       843       861       954       899       999       804       944       905       888       975       947       882       951       880
dram[4]:        997      1036      1232       840      1079      1332      1051      1046      1038       939      1108      1115      1112      1122      1084      1094
dram[5]:        851       900       976       853       967       890       800       999       857      1018       993       896       979      1021       922       952

Number of Memory Banks Accessed per Memory Operation per Warp (from 0):
0	0	0	0	0	0	0	0	0	0	0	0	0	0	0	0	0	0	0	0	0	0	0	0	0	0	0	0	0	0	0	0	0	0	0	0	0	0	0	0	0	0	0	0	0	0	0	0	0	0	0	0	0	0	0	0	0	0	0	0	0	0	0	0	0	0	0	0	0	0	0	0	0	0	0	0	0	0	0	0	0	0	0	0	0	0	0	0	0	0	0	0	0	0	0	0	
Average # of Memory Banks Accessed per Memory Operation per Warp=-nan

position of mrq chosen
0	0	0	0	0	0	0	0	0	0	0	0	0	0	0	0	

average position of mrq chosen = -nan
Memory Partition 0: 
Cache L2_bank_000:
MSHR contents

Cache L2_bank_001:
MSHR contents

In Dram Latency Queue (total = 0): 
DRAM[0]: 16 bks, busW=4 BL=8 CL=12, tRRD=2 tCCD=6, tRCD=12 tRAS=28 tRP=12 tRC=40
n_cmd=1010013 n_nop=992724 n_act=895 n_pre=879 n_req=4013 n_rd=14996 n_write=519 bw_util=0.03072
n_activity=87401 dram_eff=0.355
bk0: 860a 1006165i bk1: 864a 1005714i bk2: 860a 1005478i bk3: 900a 1005444i bk4: 948a 1004978i bk5: 916a 1004483i bk6: 1068a 1003982i bk7: 1068a 1003501i bk8: 1036a 1005544i bk9: 1072a 1005027i bk10: 932a 1004963i bk11: 948a 1004336i bk12: 900a 1004414i bk13: 884a 1004096i bk14: 860a 1005376i bk15: 880a 1005151i 
dram_util_bins: 0 0 0 0 0 0 0 0 0 0
dram_eff_bins: 0 0 0 0 0 0 0 0 0 0
mrqq: max=16 avg=0.0469073
Memory Partition 1: 
Cache L2_bank_002:
MSHR contents

Cache L2_bank_003:
MSHR contents

In Dram Latency Queue (total = 0): 
DRAM[1]: 16 bks, busW=4 BL=8 CL=12, tRRD=2 tCCD=6, tRCD=12 tRAS=28 tRP=12 tRC=40
n_cmd=1010013 n_nop=992578 n_act=921 n_pre=905 n_req=4041 n_rd=15060 n_write=549 bw_util=0.03091
n_activity=91805 dram_eff=0.34
bk0: 880a 1006337i bk1: 888a 1006015i bk2: 856a 1006058i bk3: 884a 1005866i bk4: 952a 1005008i bk5: 948a 1004848i bk6: 1024a 1004665i bk7: 1100a 1003733i bk8: 1060a 1004597i bk9: 1052a 1004677i bk10: 972a 1005661i bk11: 944a 1005582i bk12: 864a 1005448i bk13: 880a 1005242i bk14: 892a 1005419i bk15: 864a 1005765i 
dram_util_bins: 0 0 0 0 0 0 0 0 0 0
dram_eff_bins: 0 0 0 0 0 0 0 0 0 0
mrqq: max=11 avg=0.0127196
Memory Partition 2: 
Cache L2_bank_004:
MSHR contents

Cache L2_bank_005:
MSHR contents

In Dram Latency Queue (total = 0): 
DRAM[2]: 16 bks, busW=4 BL=8 CL=12, tRRD=2 tCCD=6, tRCD=12 tRAS=28 tRP=12 tRC=40
n_cmd=1010013 n_nop=992618 n_act=911 n_pre=895 n_req=4033 n_rd=15092 n_write=497 bw_util=0.03087
n_activity=87425 dram_eff=0.3566
bk0: 904a 1005811i bk1: 864a 1005911i bk2: 876a 1005584i bk3: 872a 1005241i bk4: 908a 1005213i bk5: 956a 1005203i bk6: 1036a 1004829i bk7: 1092a 1003985i bk8: 1096a 1004625i bk9: 1068a 1004506i bk10: 940a 1004931i bk11: 964a 1004465i bk12: 876a 1005443i bk13: 880a 1004390i bk14: 876a 1005229i bk15: 884a 1005316i 
dram_util_bins: 0 0 0 0 0 0 0 0 0 0
dram_eff_bins: 0 0 0 0 0 0 0 0 0 0
mrqq: max=16 avg=0.0340996
Memory Partition 3: 
Cache L2_bank_006:
MSHR contents

Cache L2_bank_007:
MSHR contents

In Dram Latency Queue (total = 0): 
DRAM[3]: 16 bks, busW=4 BL=8 CL=12, tRRD=2 tCCD=6, tRCD=12 tRAS=28 tRP=12 tRC=40
n_cmd=1010013 n_nop=992793 n_act=898 n_pre=882 n_req=4001 n_rd=14912 n_write=528 bw_util=0.03057
n_activity=90598 dram_eff=0.3408
bk0: 876a 1006095i bk1: 856a 1006035i bk2: 888a 1006119i bk3: 888a 1006009i bk4: 892a 1005524i bk5: 908a 1005315i bk6: 1036a 1004947i bk7: 1028a 1004219i bk8: 1060a 1005024i bk9: 1028a 1005041i bk10: 952a 1005352i bk11: 952a 1005153i bk12: 880a 1005595i bk13: 900a 1005010i bk14: 888a 1005727i bk15: 880a 1005930i 
dram_util_bins: 0 0 0 0 0 0 0 0 0 0
dram_eff_bins: 0 0 0 0 0 0 0 0 0 0
mrqq: max=6 avg=0.0116018
Memory Partition 4: 
Cache L2_bank_008:
MSHR contents

Cache L2_bank_009:
MSHR contents

In Dram Latency Queue (total = 0): 
DRAM[4]: 16 bks, busW=4 BL=8 CL=12, tRRD=2 tCCD=6, tRCD=12 tRAS=28 tRP=12 tRC=40
n_cmd=1010013 n_nop=992952 n_act=796 n_pre=780 n_req=4007 n_rd=14956 n_write=529 bw_util=0.03066
n_activity=85953 dram_eff=0.3603
bk0: 892a 1006404i bk1: 900a 1005915i bk2: 876a 1005800i bk3: 876a 1005676i bk4: 892a 1004422i bk5: 920a 1004325i bk6: 1036a 1003634i bk7: 1028a 1004291i bk8: 1084a 1005271i bk9: 1024a 1005202i bk10: 980a 1004512i bk11: 936a 1004501i bk12: 892a 1004380i bk13: 884a 1004132i bk14: 912a 1005214i bk15: 824a 1005382i 
dram_util_bins: 0 0 0 0 0 0 0 0 0 0
dram_eff_bins: 0 0 0 0 0 0 0 0 0 0
mrqq: max=16 avg=0.053527
Memory Partition 5: 
Cache L2_bank_010:
MSHR contents

Cache L2_bank_011:
MSHR contents

In Dram Latency Queue (total = 0): 
DRAM[5]: 16 bks, busW=4 BL=8 CL=12, tRRD=2 tCCD=6, tRCD=12 tRAS=28 tRP=12 tRC=40
n_cmd=1010013 n_nop=992440 n_act=1011 n_pre=995 n_req=4026 n_rd=15028 n_write=539 bw_util=0.03083
n_activity=93405 dram_eff=0.3333
bk0: 892a 1005968i bk1: 884a 1005337i bk2: 896a 1005303i bk3: 872a 1005128i bk4: 928a 1004847i bk5: 964a 1004384i bk6: 1044a 1004466i bk7: 1060a 1004622i bk8: 1072a 1004743i bk9: 1032a 1004800i bk10: 972a 1005367i bk11: 936a 1005807i bk12: 876a 1005558i bk13: 868a 1005123i bk14: 840a 1005863i bk15: 892a 1005325i 
dram_util_bins: 0 0 0 0 0 0 0 0 0 0
dram_eff_bins: 0 0 0 0 0 0 0 0 0 0
mrqq: max=8 avg=0.0130533

========= L2 cache stats =========
L2_cache_bank[0]: Access = 82301, Miss = 1866, Miss_rate = 0.023, Pending_hits = 1081, Reservation_fails = 340
L2_cache_bank[1]: Access = 82734, Miss = 1883, Miss_rate = 0.023, Pending_hits = 1060, Reservation_fails = 78
L2_cache_bank[2]: Access = 82391, Miss = 1875, Miss_rate = 0.023, Pending_hits = 1142, Reservation_fails = 107
L2_cache_bank[3]: Access = 83721, Miss = 1890, Miss_rate = 0.023, Pending_hits = 1159, Reservation_fails = 0
L2_cache_bank[4]: Access = 81978, Miss = 1878, Miss_rate = 0.023, Pending_hits = 1115, Reservation_fails = 0
L2_cache_bank[5]: Access = 83404, Miss = 1895, Miss_rate = 0.023, Pending_hits = 1105, Reservation_fails = 0
L2_cache_bank[6]: Access = 82643, Miss = 1868, Miss_rate = 0.023, Pending_hits = 1117, Reservation_fails = 0
L2_cache_bank[7]: Access = 83256, Miss = 1860, Miss_rate = 0.022, Pending_hits = 1094, Reservation_fails = 0
L2_cache_bank[8]: Access = 122623, Miss = 1891, Miss_rate = 0.015, Pending_hits = 1107, Reservation_fails = 0
L2_cache_bank[9]: Access = 83557, Miss = 1848, Miss_rate = 0.022, Pending_hits = 1136, Reservation_fails = 0
L2_cache_bank[10]: Access = 82976, Miss = 1880, Miss_rate = 0.023, Pending_hits = 1152, Reservation_fails = 0
L2_cache_bank[11]: Access = 83664, Miss = 1877, Miss_rate = 0.022, Pending_hits = 1102, Reservation_fails = 0
L2_total_cache_accesses = 1035248
L2_total_cache_misses = 22511
L2_total_cache_miss_rate = 0.0217
L2_total_cache_pending_hits = 13370
L2_total_cache_reservation_fails = 525
L2_total_cache_breakdown:
	L2_cache_stats_breakdown[GLOBAL_ACC_R][HIT] = 587174
	L2_cache_stats_breakdown[GLOBAL_ACC_R][HIT_RESERVED] = 13319
	L2_cache_stats_breakdown[GLOBAL_ACC_R][MISS] = 21457
	L2_cache_stats_breakdown[GLOBAL_ACC_R][RESERVATION_FAIL] = 187
	L2_cache_stats_breakdown[CONST_ACC_R][HIT] = 11
	L2_cache_stats_breakdown[CONST_ACC_R][HIT_RESERVED] = 3
	L2_cache_stats_breakdown[CONST_ACC_R][MISS] = 1
	L2_cache_stats_breakdown[CONST_ACC_R][RESERVATION_FAIL] = 111
	L2_cache_stats_breakdown[GLOBAL_ACC_W][HIT] = 412130
	L2_cache_stats_breakdown[GLOBAL_ACC_W][HIT_RESERVED] = 42
	L2_cache_stats_breakdown[GLOBAL_ACC_W][MISS] = 1051
	L2_cache_stats_breakdown[INST_ACC_R][HIT] = 52
	L2_cache_stats_breakdown[INST_ACC_R][HIT_RESERVED] = 6
	L2_cache_stats_breakdown[INST_ACC_R][MISS] = 2
	L2_cache_stats_breakdown[INST_ACC_R][RESERVATION_FAIL] = 227
L2_cache_data_port_util = 0.301
L2_cache_fill_port_util = 0.020

icnt_total_pkts_mem_to_simt=3523318
icnt_total_pkts_simt_to_mem=1449078
LD_mem_lat_dist  0 0 0 0 0 0 0 0 0 0 0 0 0 0 0 0 0 0 0 0 0 0 0 0 0 0 0
ST_mem_lat_dist  0 0 0 0 0 0 0 0 0 0 0 0 0 0 0 0 0 0 0 0 0 0 0 0 0 0 0
----------------------------Interconnect-DETAILS--------------------------------
Class 0:
Packet latency average = 10.0275
	minimum = 6
	maximum = 32
Network latency average = 9.33198
	minimum = 6
	maximum = 27
Slowest packet = 2069756
Flit latency average = 7.94569
	minimum = 6
	maximum = 23
Slowest flit = 4969940
Fragmentation average = 0
	minimum = 0
	maximum = 0
Injected packet rate average = 0.0256853
	minimum = 0.0211864 (at node 0)
	maximum = 0.0310734 (at node 16)
Accepted packet rate average = 0.0256853
	minimum = 0.0211864 (at node 0)
	maximum = 0.0310734 (at node 16)
Injected flit rate average = 0.0770559
	minimum = 0.0211864 (at node 0)
	maximum = 0.155367 (at node 16)
Accepted flit rate average= 0.0770559
	minimum = 0.0254237 (at node 15)
	maximum = 0.127119 (at node 4)
Injected packet length average = 3
Accepted packet length average = 3
Total in-flight flits = 0 (0 measured)
====== Overall Traffic Statistics ======
====== Traffic class 0 ======
Packet latency average = 32.917 (9 samples)
	minimum = 6 (9 samples)
	maximum = 298.222 (9 samples)
Network latency average = 21.4714 (9 samples)
	minimum = 6 (9 samples)
	maximum = 255.222 (9 samples)
Flit latency average = 16.2272 (9 samples)
	minimum = 6 (9 samples)
	maximum = 252.889 (9 samples)
Fragmentation average = 0.0317094 (9 samples)
	minimum = 0 (9 samples)
	maximum = 156.222 (9 samples)
Injected packet rate average = 0.0514906 (9 samples)
	minimum = 0.040861 (9 samples)
	maximum = 0.0924074 (9 samples)
Accepted packet rate average = 0.0514906 (9 samples)
	minimum = 0.040861 (9 samples)
	maximum = 0.0924074 (9 samples)
Injected flit rate average = 0.128332 (9 samples)
	minimum = 0.0541368 (9 samples)
	maximum = 0.251409 (9 samples)
Accepted flit rate average = 0.128332 (9 samples)
	minimum = 0.0683571 (9 samples)
	maximum = 0.218503 (9 samples)
Injected packet size average = 2.49235 (9 samples)
Accepted packet size average = 2.49235 (9 samples)
Hops average = 1 (9 samples)
----------------------------END-of-Interconnect-DETAILS-------------------------


gpgpu_simulation_time = 0 days, 0 hrs, 6 min, 38 sec (398 sec)
gpgpu_simulation_rate = 42265 (inst/sec)
gpgpu_simulation_rate = 1922 (cycle/sec)
GPGPU-Sim: synchronize waiting for inactive GPU simulation
GPGPU-Sim API: Stream Manager State
GPGPU-Sim: detected inactive GPU simulation thread
Kernel Executed 9 times
Processing time: 396750.843750 (ms)
Result stored in result.txt
