

        *** GPGPU-Sim Simulator Version 3.2.2  [build 0] ***


GPGPU-Sim PTX: simulation mode 0 (can change with PTX_SIM_MODE_FUNC environment variable:
               1=functional simulation only, 0=detailed performance simulator)
GPGPU-Sim: Configuration options:

-network_mode                           1 # Interconnection network mode
-inter_config_file   config_fermi_islip.icnt # Interconnection network config file
-gpgpu_ptx_use_cuobjdump                    1 # Use cuobjdump to extract ptx and sass from binaries
-gpgpu_experimental_lib_support                    0 # Try to extract code from cuda libraries [Broken because of unknown cudaGetExportTable]
-gpgpu_ptx_convert_to_ptxplus                    0 # Convert SASS (native ISA) to ptxplus and run ptxplus
-gpgpu_ptx_force_max_capability                   20 # Force maximum compute capability
-gpgpu_ptx_inst_debug_to_file                    0 # Dump executed instructions' debug information to file
-gpgpu_ptx_inst_debug_file       inst_debug.txt # Executed instructions' debug output file
-gpgpu_ptx_inst_debug_thread_uid                    1 # Thread UID for executed instructions' debug output
-gpgpu_simd_model                       1 # 1 = post-dominator
-gpgpu_shader_core_pipeline              1536:32 # shader core pipeline config, i.e., {<nthread>:<warpsize>}
-gpgpu_tex_cache:l1  4:128:24,L:R:m:N:L,F:128:4,128:2 # per-shader L1 texture cache  (READ-ONLY) config  {<nsets>:<bsize>:<assoc>,<rep>:<wr>:<alloc>:<wr_alloc>,<mshr>:<N>:<merge>,<mq>:<rf>}
-gpgpu_const_cache:l1 64:64:2,L:R:f:N:L,A:2:32,4 # per-shader L1 constant memory cache  (READ-ONLY) config  {<nsets>:<bsize>:<assoc>,<rep>:<wr>:<alloc>:<wr_alloc>,<mshr>:<N>:<merge>,<mq>} 
-gpgpu_cache:il1     4:128:4,L:R:f:N:L,A:2:32,4 # shader L1 instruction cache config  {<nsets>:<bsize>:<assoc>,<rep>:<wr>:<alloc>:<wr_alloc>,<mshr>:<N>:<merge>,<mq>} 
-gpgpu_cache:dl1     32:128:4,L:L:m:N:H,A:32:8,8 # per-shader L1 data cache config  {<nsets>:<bsize>:<assoc>,<rep>:<wr>:<alloc>:<wr_alloc>,<mshr>:<N>:<merge>,<mq> | none}
-gpgpu_cache:dl1PrefL1                 none # per-shader L1 data cache config  {<nsets>:<bsize>:<assoc>,<rep>:<wr>:<alloc>:<wr_alloc>,<mshr>:<N>:<merge>,<mq> | none}
-gpgpu_cache:dl1PreShared                 none # per-shader L1 data cache config  {<nsets>:<bsize>:<assoc>,<rep>:<wr>:<alloc>:<wr_alloc>,<mshr>:<N>:<merge>,<mq> | none}
-gmem_skip_L1D                          0 # global memory access skip L1D cache (implements -Xptxas -dlcm=cg, default=no skip)
-gpgpu_perfect_mem                      0 # enable perfect memory mode (no cache miss)
-n_regfile_gating_group                    4 # group of lanes that should be read/written together)
-gpgpu_clock_gated_reg_file                    0 # enable clock gated reg file for power calculations
-gpgpu_clock_gated_lanes                    0 # enable clock gated lanes for power calculations
-gpgpu_shader_registers                32768 # Number of registers per shader core. Limits number of concurrent CTAs. (default 8192)
-gpgpu_shader_cta                       8 # Maximum number of concurrent CTAs in shader (default 8)
-gpgpu_num_cta_barriers                   16 # Maximum number of named barriers per CTA (default 16)
-gpgpu_n_clusters                      15 # number of processing clusters
-gpgpu_n_cores_per_cluster                    1 # number of simd cores per cluster
-gpgpu_n_cluster_ejection_buffer_size                    8 # number of packets in ejection buffer
-gpgpu_n_ldst_response_buffer_size                    2 # number of response packets in ld/st unit ejection buffer
-gpgpu_shmem_size                   16384 # Size of shared memory per shader core (default 16kB)
-gpgpu_shmem_size                   49152 # Size of shared memory per shader core (default 16kB)
-gpgpu_shmem_size_PrefL1                16384 # Size of shared memory per shader core (default 16kB)
-gpgpu_shmem_size_PrefShared                16384 # Size of shared memory per shader core (default 16kB)
-gpgpu_shmem_num_banks                   32 # Number of banks in the shared memory in each shader core (default 16)
-gpgpu_shmem_limited_broadcast                    0 # Limit shared memory to do one broadcast per cycle (default on)
-gpgpu_shmem_warp_parts                    1 # Number of portions a warp is divided into for shared memory bank conflict check 
-gpgpu_warpdistro_shader                   -1 # Specify which shader core to collect the warp size distribution from
-gpgpu_warp_issue_shader                    0 # Specify which shader core to collect the warp issue distribution from
-gpgpu_local_mem_map                    1 # Mapping from local memory space address to simulated GPU physical address space (default = enabled)
-gpgpu_num_reg_banks                   16 # Number of register banks (default = 8)
-gpgpu_reg_bank_use_warp_id                    0 # Use warp ID in mapping registers to banks (default = off)
-gpgpu_operand_collector_num_units_sp                    6 # number of collector units (default = 4)
-gpgpu_operand_collector_num_units_sfu                    8 # number of collector units (default = 4)
-gpgpu_operand_collector_num_units_mem                    2 # number of collector units (default = 2)
-gpgpu_operand_collector_num_units_gen                    0 # number of collector units (default = 0)
-gpgpu_operand_collector_num_in_ports_sp                    2 # number of collector unit in ports (default = 1)
-gpgpu_operand_collector_num_in_ports_sfu                    1 # number of collector unit in ports (default = 1)
-gpgpu_operand_collector_num_in_ports_mem                    1 # number of collector unit in ports (default = 1)
-gpgpu_operand_collector_num_in_ports_gen                    0 # number of collector unit in ports (default = 0)
-gpgpu_operand_collector_num_out_ports_sp                    2 # number of collector unit in ports (default = 1)
-gpgpu_operand_collector_num_out_ports_sfu                    1 # number of collector unit in ports (default = 1)
-gpgpu_operand_collector_num_out_ports_mem                    1 # number of collector unit in ports (default = 1)
-gpgpu_operand_collector_num_out_ports_gen                    0 # number of collector unit in ports (default = 0)
-gpgpu_coalesce_arch                   13 # Coalescing arch (default = 13, anything else is off for now)
-gpgpu_num_sched_per_core                    2 # Number of warp schedulers per core
-gpgpu_max_insn_issue_per_warp                    1 # Max number of instructions that can be issued per warp in one cycle by scheduler
-gpgpu_simt_core_sim_order                    1 # Select the simulation order of cores in a cluster (0=Fix, 1=Round-Robin)
-gpgpu_pipeline_widths        2,1,1,2,1,1,2 # Pipeline widths ID_OC_SP,ID_OC_SFU,ID_OC_MEM,OC_EX_SP,OC_EX_SFU,OC_EX_MEM,EX_WB
-gpgpu_num_sp_units                     2 # Number of SP units (default=1)
-gpgpu_num_sfu_units                    1 # Number of SF units (default=1)
-gpgpu_num_mem_units                    1 # Number if ldst units (default=1) WARNING: not hooked up to anything
-gpgpu_scheduler                      gto # Scheduler configuration: < lrr | gto | two_level_active > If two_level_active:<num_active_warps>:<inner_prioritization>:<outer_prioritization>For complete list of prioritization values see shader.h enum scheduler_prioritization_typeDefault: gto
-gpgpu_dram_scheduler                    1 # 0 = fifo, 1 = FR-FCFS (defaul)
-gpgpu_dram_partition_queues              8:8:8:8 # i2$:$2d:d2$:$2i
-l2_ideal                               0 # Use a ideal L2 cache that always hit
-gpgpu_cache:dl2     64:128:8,L:B:m:W:L,A:32:4,4:0,32 # unified banked L2 data cache config  {<nsets>:<bsize>:<assoc>,<rep>:<wr>:<alloc>:<wr_alloc>,<mshr>:<N>:<merge>,<mq>}
-gpgpu_cache:dl2_texture_only                    0 # L2 cache used for texture only
-gpgpu_n_mem                            3 # number of memory modules (e.g. memory controllers) in gpu
-gpgpu_n_sub_partition_per_mchannel                    2 # number of memory subpartition in each memory module
-gpgpu_n_mem_per_ctrlr                    2 # number of memory chips per memory controller
-gpgpu_memlatency_stat                   14 # track and display latency statistics 0x2 enables MC, 0x4 enables queue logs
-gpgpu_frfcfs_dram_sched_queue_size                   16 # 0 = unlimited (default); # entries per chip
-gpgpu_dram_return_queue_size                  116 # 0 = unlimited (default); # entries per chip
-gpgpu_dram_buswidth                    4 # default = 4 bytes (8 bytes per cycle at DDR)
-gpgpu_dram_burst_length                    8 # Burst length of each DRAM request (default = 4 data bus cycle)
-dram_data_command_freq_ratio                    4 # Frequency ratio between DRAM data bus and command bus (default = 2 times, i.e. DDR)
-gpgpu_dram_timing_opt nbk=16:CCD=2:RRD=6:RCD=12:RAS=28:RP=12:RC=40: CL=12:WL=4:CDLR=5:WR=12:nbkgrp=4:CCDL=3:RTPL=2 # DRAM timing parameters = {nbk:tCCD:tRRD:tRCD:tRAS:tRP:tRC:CL:WL:tCDLR:tWR:nbkgrp:tCCDL:tRTPL}
-rop_latency                          120 # ROP queue latency (default 85)
-dram_latency                         100 # DRAM latency (default 30)
-gpgpu_mem_addr_mapping dramid@8;00000000.00000000.00000000.00000000.0000RRRR.RRRRRRRR.BBBCCCCB.CCSSSSSS # mapping memory address to dram model {dramid@<start bit>;<memory address map>}
-gpgpu_mem_addr_test                    0 # run sweep test to check address mapping for aliased address
-gpgpu_mem_address_mask                    1 # 0 = old addressing mask, 1 = new addressing mask, 2 = new add. mask + flipped bank sel and chip sel bits
-gpuwattch_xml_file  gpuwattch_gtx480.xml # GPUWattch XML file
-power_simulation_enabled                    0 # Turn on power simulator (1=On, 0=Off)
-power_per_cycle_dump                    0 # Dump detailed power output each cycle
-power_trace_enabled                    0 # produce a file for the power trace (1=On, 0=Off)
-power_trace_zlevel                     6 # Compression level of the power trace output log (0=no comp, 9=highest)
-steady_power_levels_enabled                    0 # produce a file for the steady power levels (1=On, 0=Off)
-steady_state_definition                  8:4 # allowed deviation:number of samples
-gpgpu_max_cycle                        0 # terminates gpu simulation early (0 = no limit)
-gpgpu_max_insn                         0 # terminates gpu simulation early (0 = no limit)
-gpgpu_max_cta                          0 # terminates gpu simulation early (0 = no limit)
-gpgpu_runtime_stat                   500 # display runtime statistics such as dram utilization {<freq>:<flag>}
-liveness_message_freq                    1 # Minimum number of seconds between simulation liveness messages (0 = always print)
-gpgpu_flush_l1_cache                    0 # Flush L1 cache at the end of each kernel call
-gpgpu_flush_l2_cache                    0 # Flush L2 cache at the end of each kernel call
-gpgpu_deadlock_detect                    1 # Stop the simulation at deadlock (1=on (default), 0=off)
-gpgpu_ptx_instruction_classification                    0 # if enabled will classify ptx instruction types per kernel (Max 255 kernels now)
-gpgpu_ptx_sim_mode                     0 # Select between Performance (default) or Functional simulation (1)
-gpgpu_clock_domains 700.0:700.0:700.0:924.0 # Clock Domain Frequencies in MhZ {<Core Clock>:<ICNT Clock>:<L2 Clock>:<DRAM Clock>}
-gpgpu_max_concurrent_kernel                    8 # maximum kernels that can run concurrently on GPU
-gpgpu_cflog_interval                    0 # Interval between each snapshot in control flow logger
-visualizer_enabled                     0 # Turn on visualizer output (1=On, 0=Off)
-visualizer_outputfile                 NULL # Specifies the output log file for visualizer
-visualizer_zlevel                      6 # Compression level of the visualizer output log (0=no comp, 9=highest)
-trace_enabled                          0 # Turn on traces
-trace_components                    none # comma seperated list of traces to enable. Complete list found in trace_streams.tup. Default none
-trace_sampling_core                    0 # The core which is printed using CORE_DPRINTF. Default 0
-trace_sampling_memory_partition                   -1 # The memory partition which is printed using MEMPART_DPRINTF. Default -1 (i.e. all)
-enable_ptx_file_line_stats                    1 # Turn on PTX source line statistic profiling. (1 = On)
-ptx_line_stats_filename gpgpu_inst_stats.txt # Output file for PTX source line statistics.
-save_embedded_ptx                      0 # saves ptx files embedded in binary as <n>.ptx
-keep                                   0 # keep intermediate files created by GPGPU-Sim when interfacing with external programs
-gpgpu_ptx_save_converted_ptxplus                    0 # Saved converted ptxplus to a file
-ptx_opcode_latency_int         4,13,4,5,145 # Opcode latencies for integers <ADD,MAX,MUL,MAD,DIV>Default 1,1,19,25,145
-ptx_opcode_latency_fp          4,13,4,5,39 # Opcode latencies for single precision floating points <ADD,MAX,MUL,MAD,DIV>Default 1,1,1,1,30
-ptx_opcode_latency_dp         8,19,8,8,330 # Opcode latencies for double precision floating points <ADD,MAX,MUL,MAD,DIV>Default 8,8,8,8,335
-ptx_opcode_initiation_int            1,2,2,1,8 # Opcode initiation intervals for integers <ADD,MAX,MUL,MAD,DIV>Default 1,1,4,4,32
-ptx_opcode_initiation_fp            1,2,1,1,4 # Opcode initiation intervals for single precision floating points <ADD,MAX,MUL,MAD,DIV>Default 1,1,1,1,5
-ptx_opcode_initiation_dp         8,16,8,8,130 # Opcode initiation intervals for double precision floating points <ADD,MAX,MUL,MAD,DIV>Default 8,8,8,8,130
DRAM Timing Options:
nbk                                    16 # number of banks
CCD                                     2 # column to column delay
RRD                                     6 # minimal delay between activation of rows in different banks
RCD                                    12 # row to column delay
RAS                                    28 # time needed to activate row
RP                                     12 # time needed to precharge (deactivate) row
RC                                     40 # row cycle time
CDLR                                    5 # switching from write to read (changes tWTR)
WR                                     12 # last data-in to row precharge
CL                                     12 # CAS latency
WL                                      4 # Write latency
nbkgrp                                  4 # number of bank groups
CCDL                                    3 # column to column delay between accesses to different bank groups
RTPL                                    2 # read to precharge delay between accesses to different bank groups
Total number of memory sub partition = 6
addr_dec_mask[CHIP]  = 0000000000000000 	high:64 low:0
addr_dec_mask[BK]    = 000000000000e100 	high:16 low:8
addr_dec_mask[ROW]   = 000000000fff0000 	high:28 low:16
addr_dec_mask[COL]   = 0000000000001eff 	high:13 low:0
addr_dec_mask[BURST] = 000000000000003f 	high:6 low:0
sub_partition_id_mask = 0000000000000100
GPGPU-Sim uArch: clock freqs: 700000000.000000:700000000.000000:700000000.000000:924000000.000000
GPGPU-Sim uArch: clock periods: 0.00000000142857142857:0.00000000142857142857:0.00000000142857142857:0.00000000108225108225
*** Initializing Memory Statistics ***
GPGPU-Sim uArch: interconnect node map (shaderID+MemID to icntID)
GPGPU-Sim uArch: Memory nodes ID start from index: 15
GPGPU-Sim uArch:    0   1   2   3   4
GPGPU-Sim uArch:    5   6   7   8   9
GPGPU-Sim uArch:   10  11  12  13  14
GPGPU-Sim uArch:   15  16  17  18  19
GPGPU-Sim uArch:   20  21  22  23  24
GPGPU-Sim uArch:   25  26
GPGPU-Sim uArch: interconnect node reverse map (icntID to shaderID+MemID)
GPGPU-Sim uArch: Memory nodes start from ID: 15
GPGPU-Sim uArch:    0   1   2   3   4
GPGPU-Sim uArch:    5   6   7   8   9
GPGPU-Sim uArch:   10  11  12  13  14
GPGPU-Sim uArch:   15  16  17  18  19
GPGPU-Sim uArch:   20  21  22  23  24
GPGPU-Sim uArch:   25  26
e389dacb331e7fcddf4abf4a164344f1  /sciclone/data20/adwait/applications/benchmarks/CUDA/BlackScholes/gpgpu_ptx_sim__BlackScholes
GPGPU-Sim uArch: performance model initialization complete.
GPGPU-Sim PTX: __cudaRegisterFatBinary, fat_cubin_handle = 1, filename=BlackScholes.cu
self exe links to: /sciclone/data20/adwait/applications/benchmarks/CUDA/BlackScholes/gpgpu_ptx_sim__BlackScholes
Running md5sum using "md5sum /sciclone/data20/adwait/applications/benchmarks/CUDA/BlackScholes/gpgpu_ptx_sim__BlackScholes "
Parsing file _cuobjdump_complete_output_vl6Fxy
######### cuobjdump parser ########
## Adding new section ELF
Adding arch: sm_20
Adding identifier: BlackScholes.cu
## Adding new section PTX
Adding ptx filename: _cuobjdump_1.ptx
Adding arch: sm_20
Adding identifier: BlackScholes.cu
Done parsing!!!
GPGPU-Sim PTX: __cudaRegisterFunction _Z15BlackScholesGPUPfS_S_S_S_ffi : hostFun 0x0x405752, fat_cubin_handle = 1
GPGPU-Sim PTX: instruction assembly for function '_Z15BlackScholesGPUPfS_S_S_S_ffi'...   done.
GPGPU-Sim PTX: finding reconvergence points for '_Z15BlackScholesGPUPfS_S_S_S_ffi'...
GPGPU-Sim PTX: Finding dominators for '_Z15BlackScholesGPUPfS_S_S_S_ffi'...
GPGPU-Sim PTX: Finding immediate dominators for '_Z15BlackScholesGPUPfS_S_S_S_ffi'...
GPGPU-Sim PTX: Finding postdominators for '_Z15BlackScholesGPUPfS_S_S_S_ffi'...
GPGPU-Sim PTX: Finding immediate postdominators for '_Z15BlackScholesGPUPfS_S_S_S_ffi'...
GPGPU-Sim PTX: pre-decoding instructions for '_Z15BlackScholesGPUPfS_S_S_S_ffi'...
GPGPU-Sim PTX: reconvergence points for _Z15BlackScholesGPUPfS_S_S_S_ffi...
GPGPU-Sim PTX:  1 (potential) branch divergence @  PC=0x040 (_1.ptx:76) @%p1 bra $Lt_0_2818;
GPGPU-Sim PTX:    immediate post dominator      @  PC=0x3f8 (_1.ptx:200) exit;
GPGPU-Sim PTX:  2 (potential) branch divergence @  PC=0x3f0 (_1.ptx:197) @%p4 bra $Lt_0_3330;
GPGPU-Sim PTX:    immediate post dominator      @  PC=0x3f8 (_1.ptx:200) exit;
GPGPU-Sim PTX: ... end of reconvergence points for _Z15BlackScholesGPUPfS_S_S_S_ffi
GPGPU-Sim PTX: ... done pre-decoding instructions for '_Z15BlackScholesGPUPfS_S_S_S_ffi'.
GPGPU-Sim PTX: finished parsing EMBEDDED .ptx file _1.ptx
Adding _cuobjdump_1.ptx with cubin handle 1
GPGPU-Sim PTX: extracting embedded .ptx to temporary file "_ptx_xfkMNd"
Running: cat _ptx_xfkMNd | sed 's/.version 1.5/.version 1.4/' | sed 's/, texmode_independent//' | sed 's/\(\.extern \.const\[1\] .b8 \w\+\)\[\]/\1\[1\]/' | sed 's/const\[.\]/const\[0\]/g' > _ptx2_FMcBhT
GPGPU-Sim PTX: generating ptxinfo using "$CUDA_INSTALL_PATH/bin/ptxas --gpu-name=sm_20 -v _ptx2_FMcBhT --output-file  /dev/null 2> _ptx_xfkMNdinfo"
GPGPU-Sim PTX: Kernel '_Z15BlackScholesGPUPfS_S_S_S_ffi' : regs=31, lmem=0, smem=0, cmem=128
GPGPU-Sim PTX: removing ptxinfo using "rm -f _ptx_xfkMNd _ptx2_FMcBhT _ptx_xfkMNdinfo"
GPGPU-Sim PTX: loading globals with explicit initializers... 
GPGPU-Sim PTX: finished loading globals (0 bytes total).
GPGPU-Sim PTX: loading constants with explicit initializers...  done.
Initializing data...
...allocating CPU memory for options.
...allocating GPU memory for options.
...generating input data in CPU mem.
...copying input data to GPU mem.
Data init done.
Executing Black-Scholes GPU kernel (1 iterations)...
GPGPU-Sim: synchronize waiting for inactive GPU simulation
GPGPU-Sim API: Stream Manager State
GPGPU-Sim: detected inactive GPU simulation thread

GPGPU-Sim PTX: cudaLaunch for 0x0x405752 (mode=performance simulation) on stream 0
GPGPU-Sim PTX: pushing kernel '_Z15BlackScholesGPUPfS_S_S_S_ffi' to stream 0, gridDim= (480,1,1) blockDim = (128,1,1) 
kernel '_Z15BlackScholesGPUPfS_S_S_S_ffi' transfer to GPU hardware scheduler
GPGPU-Sim uArch: Shader 1 bind to kernel 1 '_Z15BlackScholesGPUPfS_S_S_S_ffi'
GPGPU-Sim uArch: CTA/core = 8, limited by: regs cta_limit
GPGPU-Sim uArch: core:  1, cta: 0 initialized @(1,0)
GPGPU-Sim uArch: Shader 2 bind to kernel 1 '_Z15BlackScholesGPUPfS_S_S_S_ffi'
GPGPU-Sim uArch: core:  2, cta: 0 initialized @(1,0)
GPGPU-Sim uArch: Shader 3 bind to kernel 1 '_Z15BlackScholesGPUPfS_S_S_S_ffi'
GPGPU-Sim uArch: core:  3, cta: 0 initialized @(1,0)
GPGPU-Sim uArch: Shader 4 bind to kernel 1 '_Z15BlackScholesGPUPfS_S_S_S_ffi'
GPGPU-Sim uArch: core:  4, cta: 0 initialized @(1,0)
GPGPU-Sim uArch: Shader 5 bind to kernel 1 '_Z15BlackScholesGPUPfS_S_S_S_ffi'
GPGPU-Sim uArch: core:  5, cta: 0 initialized @(1,0)
GPGPU-Sim uArch: Shader 6 bind to kernel 1 '_Z15BlackScholesGPUPfS_S_S_S_ffi'
GPGPU-Sim uArch: core:  6, cta: 0 initialized @(1,0)
GPGPU-Sim uArch: Shader 7 bind to kernel 1 '_Z15BlackScholesGPUPfS_S_S_S_ffi'
GPGPU-Sim uArch: core:  7, cta: 0 initialized @(1,0)
GPGPU-Sim uArch: Shader 8 bind to kernel 1 '_Z15BlackScholesGPUPfS_S_S_S_ffi'
GPGPU-Sim uArch: core:  8, cta: 0 initialized @(1,0)
GPGPU-Sim uArch: Shader 9 bind to kernel 1 '_Z15BlackScholesGPUPfS_S_S_S_ffi'
GPGPU-Sim uArch: core:  9, cta: 0 initialized @(1,0)
GPGPU-Sim uArch: Shader 10 bind to kernel 1 '_Z15BlackScholesGPUPfS_S_S_S_ffi'
GPGPU-Sim uArch: core: 10, cta: 0 initialized @(1,0)
GPGPU-Sim uArch: Shader 11 bind to kernel 1 '_Z15BlackScholesGPUPfS_S_S_S_ffi'
GPGPU-Sim uArch: core: 11, cta: 0 initialized @(1,0)
GPGPU-Sim uArch: Shader 12 bind to kernel 1 '_Z15BlackScholesGPUPfS_S_S_S_ffi'
GPGPU-Sim uArch: core: 12, cta: 0 initialized @(1,0)
GPGPU-Sim uArch: Shader 13 bind to kernel 1 '_Z15BlackScholesGPUPfS_S_S_S_ffi'
GPGPU-Sim uArch: core: 13, cta: 0 initialized @(1,0)
GPGPU-Sim uArch: Shader 14 bind to kernel 1 '_Z15BlackScholesGPUPfS_S_S_S_ffi'
GPGPU-Sim uArch: core: 14, cta: 0 initialized @(1,0)
GPGPU-Sim uArch: Shader 0 bind to kernel 1 '_Z15BlackScholesGPUPfS_S_S_S_ffi'
GPGPU-Sim uArch: core:  0, cta: 0 initialized @(1,0)
GPGPU-Sim uArch: core:  1, cta: 1 initialized @(2,0)
GPGPU-Sim uArch: core:  2, cta: 1 initialized @(2,0)
GPGPU-Sim uArch: core:  3, cta: 1 initialized @(2,0)
GPGPU-Sim uArch: core:  4, cta: 1 initialized @(2,0)
GPGPU-Sim uArch: core:  5, cta: 1 initialized @(2,0)
GPGPU-Sim uArch: core:  6, cta: 1 initialized @(2,0)
GPGPU-Sim uArch: core:  7, cta: 1 initialized @(2,0)
GPGPU-Sim uArch: core:  8, cta: 1 initialized @(2,0)
GPGPU-Sim uArch: core:  9, cta: 1 initialized @(2,0)
GPGPU-Sim uArch: core: 10, cta: 1 initialized @(2,0)
GPGPU-Sim uArch: core: 11, cta: 1 initialized @(2,0)
GPGPU-Sim uArch: core: 12, cta: 1 initialized @(2,0)
GPGPU-Sim uArch: core: 13, cta: 1 initialized @(2,0)
GPGPU-Sim uArch: core: 14, cta: 1 initialized @(2,0)
GPGPU-Sim uArch: core:  0, cta: 1 initialized @(2,0)
GPGPU-Sim uArch: core:  1, cta: 2 initialized @(3,0)
GPGPU-Sim uArch: core:  2, cta: 2 initialized @(3,0)
GPGPU-Sim uArch: core:  3, cta: 2 initialized @(3,0)
GPGPU-Sim uArch: core:  4, cta: 2 initialized @(3,0)
GPGPU-Sim uArch: core:  5, cta: 2 initialized @(3,0)
GPGPU-Sim uArch: core:  6, cta: 2 initialized @(3,0)
GPGPU-Sim uArch: core:  7, cta: 2 initialized @(3,0)
GPGPU-Sim uArch: core:  8, cta: 2 initialized @(3,0)
GPGPU-Sim uArch: core:  9, cta: 2 initialized @(3,0)
GPGPU-Sim uArch: core: 10, cta: 2 initialized @(3,0)
GPGPU-Sim uArch: core: 11, cta: 2 initialized @(3,0)
GPGPU-Sim uArch: core: 12, cta: 2 initialized @(3,0)
GPGPU-Sim uArch: core: 13, cta: 2 initialized @(3,0)
GPGPU-Sim uArch: core: 14, cta: 2 initialized @(3,0)
GPGPU-Sim uArch: core:  0, cta: 2 initialized @(3,0)
GPGPU-Sim uArch: core:  1, cta: 3 initialized @(4,0)
GPGPU-Sim uArch: core:  2, cta: 3 initialized @(4,0)
GPGPU-Sim uArch: core:  3, cta: 3 initialized @(4,0)
GPGPU-Sim uArch: core:  4, cta: 3 initialized @(4,0)
GPGPU-Sim uArch: core:  5, cta: 3 initialized @(4,0)
GPGPU-Sim uArch: core:  6, cta: 3 initialized @(4,0)
GPGPU-Sim uArch: core:  7, cta: 3 initialized @(4,0)
GPGPU-Sim uArch: core:  8, cta: 3 initialized @(4,0)
GPGPU-Sim uArch: core:  9, cta: 3 initialized @(4,0)
GPGPU-Sim uArch: core: 10, cta: 3 initialized @(4,0)
GPGPU-Sim uArch: core: 11, cta: 3 initialized @(4,0)
GPGPU-Sim uArch: core: 12, cta: 3 initialized @(4,0)
GPGPU-Sim uArch: core: 13, cta: 3 initialized @(4,0)
GPGPU-Sim uArch: core: 14, cta: 3 initialized @(4,0)
GPGPU-Sim uArch: core:  0, cta: 3 initialized @(4,0)
GPGPU-Sim uArch: core:  1, cta: 4 initialized @(5,0)
GPGPU-Sim uArch: core:  2, cta: 4 initialized @(5,0)
GPGPU-Sim uArch: core:  3, cta: 4 initialized @(5,0)
GPGPU-Sim uArch: core:  4, cta: 4 initialized @(5,0)
GPGPU-Sim uArch: core:  5, cta: 4 initialized @(5,0)
GPGPU-Sim uArch: core:  6, cta: 4 initialized @(5,0)
GPGPU-Sim uArch: core:  7, cta: 4 initialized @(5,0)
GPGPU-Sim uArch: core:  8, cta: 4 initialized @(5,0)
GPGPU-Sim uArch: core:  9, cta: 4 initialized @(5,0)
GPGPU-Sim uArch: core: 10, cta: 4 initialized @(5,0)
GPGPU-Sim uArch: core: 11, cta: 4 initialized @(5,0)
GPGPU-Sim uArch: core: 12, cta: 4 initialized @(5,0)
GPGPU-Sim uArch: core: 13, cta: 4 initialized @(5,0)
GPGPU-Sim uArch: core: 14, cta: 4 initialized @(5,0)
GPGPU-Sim uArch: core:  0, cta: 4 initialized @(5,0)
GPGPU-Sim uArch: core:  1, cta: 5 initialized @(6,0)
GPGPU-Sim uArch: core:  2, cta: 5 initialized @(6,0)
GPGPU-Sim uArch: core:  3, cta: 5 initialized @(6,0)
GPGPU-Sim uArch: core:  4, cta: 5 initialized @(6,0)
GPGPU-Sim uArch: core:  5, cta: 5 initialized @(6,0)
GPGPU-Sim uArch: core:  6, cta: 5 initialized @(6,0)
GPGPU-Sim uArch: core:  7, cta: 5 initialized @(6,0)
GPGPU-Sim uArch: core:  8, cta: 5 initialized @(6,0)
GPGPU-Sim uArch: core:  9, cta: 5 initialized @(6,0)
GPGPU-Sim uArch: core: 10, cta: 5 initialized @(6,0)
GPGPU-Sim uArch: core: 11, cta: 5 initialized @(6,0)
GPGPU-Sim uArch: core: 12, cta: 5 initialized @(6,0)
GPGPU-Sim uArch: core: 13, cta: 5 initialized @(6,0)
GPGPU-Sim uArch: core: 14, cta: 5 initialized @(6,0)
GPGPU-Sim uArch: core:  0, cta: 5 initialized @(6,0)
GPGPU-Sim uArch: core:  1, cta: 6 initialized @(7,0)
GPGPU-Sim uArch: core:  2, cta: 6 initialized @(7,0)
GPGPU-Sim uArch: core:  3, cta: 6 initialized @(7,0)
GPGPU-Sim uArch: core:  4, cta: 6 initialized @(7,0)
GPGPU-Sim uArch: core:  5, cta: 6 initialized @(7,0)
GPGPU-Sim uArch: core:  6, cta: 6 initialized @(7,0)
GPGPU-Sim uArch: core:  7, cta: 6 initialized @(7,0)
GPGPU-Sim uArch: core:  8, cta: 6 initialized @(7,0)
GPGPU-Sim uArch: core:  9, cta: 6 initialized @(7,0)
GPGPU-Sim uArch: core: 10, cta: 6 initialized @(7,0)
GPGPU-Sim uArch: core: 11, cta: 6 initialized @(7,0)
GPGPU-Sim uArch: core: 12, cta: 6 initialized @(7,0)
GPGPU-Sim uArch: core: 13, cta: 6 initialized @(7,0)
GPGPU-Sim uArch: core: 14, cta: 6 initialized @(7,0)
GPGPU-Sim uArch: core:  0, cta: 6 initialized @(7,0)
GPGPU-Sim uArch: core:  1, cta: 7 initialized @(8,0)
GPGPU-Sim uArch: core:  2, cta: 7 initialized @(8,0)
GPGPU-Sim uArch: core:  3, cta: 7 initialized @(8,0)
GPGPU-Sim uArch: core:  4, cta: 7 initialized @(8,0)
GPGPU-Sim uArch: core:  5, cta: 7 initialized @(8,0)
GPGPU-Sim uArch: core:  6, cta: 7 initialized @(8,0)
GPGPU-Sim uArch: core:  7, cta: 7 initialized @(8,0)
GPGPU-Sim uArch: core:  8, cta: 7 initialized @(8,0)
GPGPU-Sim uArch: core:  9, cta: 7 initialized @(8,0)
GPGPU-Sim uArch: core: 10, cta: 7 initialized @(8,0)
GPGPU-Sim uArch: core: 11, cta: 7 initialized @(8,0)
GPGPU-Sim uArch: core: 12, cta: 7 initialized @(8,0)
GPGPU-Sim uArch: core: 13, cta: 7 initialized @(8,0)
GPGPU-Sim uArch: core: 14, cta: 7 initialized @(8,0)
GPGPU-Sim uArch: core:  0, cta: 7 initialized @(8,0)
GPGPU-Sim PTX: 100000 instructions simulated : ctaid=(27,0,0) tid=(95,0,0)
GPGPU-Sim uArch: cycles simulated: 500  inst.: 92160 (ipc=184.3) sim_rate=46080 (inst/sec) elapsed = 0:0:00:02 / Sun Feb 28 21:39:51 2016
GPGPU-Sim PTX: 200000 instructions simulated : ctaid=(55,0,0) tid=(63,0,0)
GPGPU-Sim PTX: 300000 instructions simulated : ctaid=(71,0,0) tid=(31,0,0)
GPGPU-Sim PTX: 400000 instructions simulated : ctaid=(81,0,0) tid=(31,0,0)
GPGPU-Sim uArch: cycles simulated: 1500  inst.: 426112 (ipc=284.1) sim_rate=142037 (inst/sec) elapsed = 0:0:00:03 / Sun Feb 28 21:39:52 2016
GPGPU-Sim PTX: 500000 instructions simulated : ctaid=(92,0,0) tid=(63,0,0)
GPGPU-Sim PTX: 600000 instructions simulated : ctaid=(10,0,0) tid=(95,0,0)
GPGPU-Sim PTX: 700000 instructions simulated : ctaid=(75,0,0) tid=(95,0,0)
GPGPU-Sim PTX: 800000 instructions simulated : ctaid=(81,0,0) tid=(95,0,0)
GPGPU-Sim PTX: 900000 instructions simulated : ctaid=(100,0,0) tid=(95,0,0)
GPGPU-Sim uArch: cycles simulated: 3500  inst.: 930880 (ipc=266.0) sim_rate=232720 (inst/sec) elapsed = 0:0:00:04 / Sun Feb 28 21:39:53 2016
GPGPU-Sim PTX: 1000000 instructions simulated : ctaid=(7,0,0) tid=(127,0,0)
GPGPU-Sim PTX: 1100000 instructions simulated : ctaid=(22,0,0) tid=(31,0,0)
GPGPU-Sim PTX: 1200000 instructions simulated : ctaid=(76,0,0) tid=(31,0,0)
GPGPU-Sim PTX: 1300000 instructions simulated : ctaid=(29,0,0) tid=(95,0,0)
GPGPU-Sim PTX: 1400000 instructions simulated : ctaid=(45,0,0) tid=(63,0,0)
GPGPU-Sim PTX: 1500000 instructions simulated : ctaid=(67,0,0) tid=(63,0,0)
GPGPU-Sim uArch: cycles simulated: 4500  inst.: 1521216 (ipc=338.0) sim_rate=304243 (inst/sec) elapsed = 0:0:00:05 / Sun Feb 28 21:39:54 2016
GPGPU-Sim PTX: 1600000 instructions simulated : ctaid=(1,0,0) tid=(31,0,0)
GPGPU-Sim PTX: 1700000 instructions simulated : ctaid=(96,0,0) tid=(127,0,0)
GPGPU-Sim PTX: 1800000 instructions simulated : ctaid=(106,0,0) tid=(127,0,0)
GPGPU-Sim uArch: cycles simulated: 5500  inst.: 1822624 (ipc=331.4) sim_rate=303770 (inst/sec) elapsed = 0:0:00:06 / Sun Feb 28 21:39:55 2016
GPGPU-Sim PTX: 1900000 instructions simulated : ctaid=(1,0,0) tid=(31,0,0)
GPGPU-Sim PTX: 2000000 instructions simulated : ctaid=(8,0,0) tid=(31,0,0)
GPGPU-Sim PTX: 2100000 instructions simulated : ctaid=(3,0,0) tid=(95,0,0)
GPGPU-Sim uArch: cycles simulated: 7500  inst.: 2156992 (ipc=287.6) sim_rate=308141 (inst/sec) elapsed = 0:0:00:07 / Sun Feb 28 21:39:56 2016
GPGPU-Sim PTX: 2200000 instructions simulated : ctaid=(54,0,0) tid=(31,0,0)
GPGPU-Sim PTX: 2300000 instructions simulated : ctaid=(61,0,0) tid=(95,0,0)
GPGPU-Sim PTX: 2400000 instructions simulated : ctaid=(49,0,0) tid=(95,0,0)
GPGPU-Sim PTX: 2500000 instructions simulated : ctaid=(78,0,0) tid=(95,0,0)
GPGPU-Sim PTX: 2600000 instructions simulated : ctaid=(8,0,0) tid=(127,0,0)
GPGPU-Sim PTX: 2700000 instructions simulated : ctaid=(5,0,0) tid=(31,0,0)
GPGPU-Sim PTX: 2800000 instructions simulated : ctaid=(8,0,0) tid=(31,0,0)
GPGPU-Sim uArch: cycles simulated: 9000  inst.: 2776352 (ipc=308.5) sim_rate=347044 (inst/sec) elapsed = 0:0:00:08 / Sun Feb 28 21:39:57 2016
GPGPU-Sim PTX: 2900000 instructions simulated : ctaid=(11,0,0) tid=(31,0,0)
GPGPU-Sim PTX: 3000000 instructions simulated : ctaid=(32,0,0) tid=(95,0,0)
GPGPU-Sim PTX: 3100000 instructions simulated : ctaid=(35,0,0) tid=(31,0,0)
GPGPU-Sim PTX: 3200000 instructions simulated : ctaid=(1,0,0) tid=(95,0,0)
GPGPU-Sim uArch: cycles simulated: 10500  inst.: 3179488 (ipc=302.8) sim_rate=353276 (inst/sec) elapsed = 0:0:00:09 / Sun Feb 28 21:39:58 2016
GPGPU-Sim PTX: 3300000 instructions simulated : ctaid=(56,0,0) tid=(95,0,0)
GPGPU-Sim PTX: 3400000 instructions simulated : ctaid=(58,0,0) tid=(31,0,0)
GPGPU-Sim PTX: 3500000 instructions simulated : ctaid=(6,0,0) tid=(95,0,0)
GPGPU-Sim PTX: 3600000 instructions simulated : ctaid=(42,0,0) tid=(31,0,0)
GPGPU-Sim uArch: cycles simulated: 12000  inst.: 3605536 (ipc=300.5) sim_rate=360553 (inst/sec) elapsed = 0:0:00:10 / Sun Feb 28 21:39:59 2016
GPGPU-Sim PTX: 3700000 instructions simulated : ctaid=(12,0,0) tid=(127,0,0)
GPGPU-Sim PTX: 3800000 instructions simulated : ctaid=(29,0,0) tid=(95,0,0)
GPGPU-Sim PTX: 3900000 instructions simulated : ctaid=(42,0,0) tid=(31,0,0)
GPGPU-Sim PTX: 4000000 instructions simulated : ctaid=(87,0,0) tid=(95,0,0)
GPGPU-Sim uArch: cycles simulated: 13500  inst.: 4029824 (ipc=298.5) sim_rate=366347 (inst/sec) elapsed = 0:0:00:11 / Sun Feb 28 21:40:00 2016
GPGPU-Sim PTX: 4100000 instructions simulated : ctaid=(50,0,0) tid=(31,0,0)
GPGPU-Sim PTX: 4200000 instructions simulated : ctaid=(12,0,0) tid=(95,0,0)
GPGPU-Sim PTX: 4300000 instructions simulated : ctaid=(41,0,0) tid=(95,0,0)
GPGPU-Sim PTX: 4400000 instructions simulated : ctaid=(61,0,0) tid=(31,0,0)
GPGPU-Sim PTX: 4500000 instructions simulated : ctaid=(57,0,0) tid=(95,0,0)
GPGPU-Sim PTX: 4600000 instructions simulated : ctaid=(64,0,0) tid=(31,0,0)
GPGPU-Sim uArch: cycles simulated: 15500  inst.: 4626976 (ipc=298.5) sim_rate=385581 (inst/sec) elapsed = 0:0:00:12 / Sun Feb 28 21:40:01 2016
GPGPU-Sim PTX: 4700000 instructions simulated : ctaid=(8,0,0) tid=(127,0,0)
GPGPU-Sim PTX: 4800000 instructions simulated : ctaid=(8,0,0) tid=(63,0,0)
GPGPU-Sim PTX: 4900000 instructions simulated : ctaid=(12,0,0) tid=(95,0,0)
GPGPU-Sim PTX: 5000000 instructions simulated : ctaid=(43,0,0) tid=(63,0,0)
GPGPU-Sim PTX: 5100000 instructions simulated : ctaid=(30,0,0) tid=(95,0,0)
GPGPU-Sim uArch: cycles simulated: 17000  inst.: 5097216 (ipc=299.8) sim_rate=392093 (inst/sec) elapsed = 0:0:00:13 / Sun Feb 28 21:40:02 2016
GPGPU-Sim PTX: 5200000 instructions simulated : ctaid=(29,0,0) tid=(95,0,0)
GPGPU-Sim PTX: 5300000 instructions simulated : ctaid=(34,0,0) tid=(31,0,0)
GPGPU-Sim PTX: 5400000 instructions simulated : ctaid=(25,0,0) tid=(127,0,0)
GPGPU-Sim PTX: 5500000 instructions simulated : ctaid=(64,0,0) tid=(31,0,0)
GPGPU-Sim uArch: cycles simulated: 18500  inst.: 5517952 (ipc=298.3) sim_rate=394139 (inst/sec) elapsed = 0:0:00:14 / Sun Feb 28 21:40:03 2016
GPGPU-Sim PTX: 5600000 instructions simulated : ctaid=(18,0,0) tid=(95,0,0)
GPGPU-Sim PTX: 5700000 instructions simulated : ctaid=(54,0,0) tid=(63,0,0)
GPGPU-Sim PTX: 5800000 instructions simulated : ctaid=(30,0,0) tid=(31,0,0)
GPGPU-Sim PTX: 5900000 instructions simulated : ctaid=(5,0,0) tid=(127,0,0)
GPGPU-Sim PTX: 6000000 instructions simulated : ctaid=(40,0,0) tid=(63,0,0)
GPGPU-Sim uArch: cycles simulated: 20000  inst.: 5972192 (ipc=298.6) sim_rate=398146 (inst/sec) elapsed = 0:0:00:15 / Sun Feb 28 21:40:04 2016
GPGPU-Sim PTX: 6100000 instructions simulated : ctaid=(22,0,0) tid=(95,0,0)
GPGPU-Sim PTX: 6200000 instructions simulated : ctaid=(8,0,0) tid=(63,0,0)
GPGPU-Sim PTX: 6300000 instructions simulated : ctaid=(32,0,0) tid=(127,0,0)
GPGPU-Sim PTX: 6400000 instructions simulated : ctaid=(29,0,0) tid=(95,0,0)
GPGPU-Sim uArch: cycles simulated: 21500  inst.: 6444448 (ipc=299.7) sim_rate=402778 (inst/sec) elapsed = 0:0:00:16 / Sun Feb 28 21:40:05 2016
GPGPU-Sim PTX: 6500000 instructions simulated : ctaid=(42,0,0) tid=(95,0,0)
GPGPU-Sim PTX: 6600000 instructions simulated : ctaid=(64,0,0) tid=(95,0,0)
GPGPU-Sim PTX: 6700000 instructions simulated : ctaid=(49,0,0) tid=(31,0,0)
GPGPU-Sim PTX: 6800000 instructions simulated : ctaid=(16,0,0) tid=(95,0,0)
GPGPU-Sim PTX: 6900000 instructions simulated : ctaid=(54,0,0) tid=(63,0,0)
GPGPU-Sim uArch: cycles simulated: 23000  inst.: 6906592 (ipc=300.3) sim_rate=406270 (inst/sec) elapsed = 0:0:00:17 / Sun Feb 28 21:40:06 2016
GPGPU-Sim PTX: 7000000 instructions simulated : ctaid=(6,0,0) tid=(31,0,0)
GPGPU-Sim PTX: 7100000 instructions simulated : ctaid=(15,0,0) tid=(31,0,0)
GPGPU-Sim PTX: 7200000 instructions simulated : ctaid=(82,0,0) tid=(31,0,0)
GPGPU-Sim PTX: 7300000 instructions simulated : ctaid=(16,0,0) tid=(31,0,0)
GPGPU-Sim uArch: cycles simulated: 24500  inst.: 7353184 (ipc=300.1) sim_rate=408510 (inst/sec) elapsed = 0:0:00:18 / Sun Feb 28 21:40:07 2016
GPGPU-Sim PTX: 7400000 instructions simulated : ctaid=(86,0,0) tid=(95,0,0)
GPGPU-Sim PTX: 7500000 instructions simulated : ctaid=(17,0,0) tid=(95,0,0)
GPGPU-Sim PTX: 7600000 instructions simulated : ctaid=(14,0,0) tid=(95,0,0)
GPGPU-Sim PTX: 7700000 instructions simulated : ctaid=(7,0,0) tid=(95,0,0)
GPGPU-Sim PTX: 7800000 instructions simulated : ctaid=(5,0,0) tid=(127,0,0)
GPGPU-Sim uArch: cycles simulated: 26000  inst.: 7817056 (ipc=300.7) sim_rate=411424 (inst/sec) elapsed = 0:0:00:19 / Sun Feb 28 21:40:08 2016
GPGPU-Sim PTX: 7900000 instructions simulated : ctaid=(97,0,0) tid=(31,0,0)
GPGPU-Sim PTX: 8000000 instructions simulated : ctaid=(1,0,0) tid=(63,0,0)
GPGPU-Sim PTX: 8100000 instructions simulated : ctaid=(71,0,0) tid=(95,0,0)
GPGPU-Sim PTX: 8200000 instructions simulated : ctaid=(22,0,0) tid=(127,0,0)
GPGPU-Sim PTX: 8300000 instructions simulated : ctaid=(2,0,0) tid=(127,0,0)
GPGPU-Sim PTX: 8400000 instructions simulated : ctaid=(42,0,0) tid=(63,0,0)
GPGPU-Sim uArch: cycles simulated: 28000  inst.: 8411584 (ipc=300.4) sim_rate=420579 (inst/sec) elapsed = 0:0:00:20 / Sun Feb 28 21:40:09 2016
GPGPU-Sim PTX: 8500000 instructions simulated : ctaid=(47,0,0) tid=(127,0,0)
GPGPU-Sim PTX: 8600000 instructions simulated : ctaid=(71,0,0) tid=(95,0,0)
GPGPU-Sim PTX: 8700000 instructions simulated : ctaid=(34,0,0) tid=(31,0,0)
GPGPU-Sim PTX: 8800000 instructions simulated : ctaid=(54,0,0) tid=(95,0,0)
GPGPU-Sim uArch: cycles simulated: 29500  inst.: 8859904 (ipc=300.3) sim_rate=421900 (inst/sec) elapsed = 0:0:00:21 / Sun Feb 28 21:40:10 2016
GPGPU-Sim PTX: 8900000 instructions simulated : ctaid=(20,0,0) tid=(31,0,0)
GPGPU-Sim PTX: 9000000 instructions simulated : ctaid=(41,0,0) tid=(63,0,0)
GPGPU-Sim PTX: 9100000 instructions simulated : ctaid=(18,0,0) tid=(31,0,0)
GPGPU-Sim PTX: 9200000 instructions simulated : ctaid=(25,0,0) tid=(127,0,0)
GPGPU-Sim PTX: 9300000 instructions simulated : ctaid=(71,0,0) tid=(95,0,0)
GPGPU-Sim uArch: cycles simulated: 31000  inst.: 9305696 (ipc=300.2) sim_rate=422986 (inst/sec) elapsed = 0:0:00:22 / Sun Feb 28 21:40:11 2016
GPGPU-Sim PTX: 9400000 instructions simulated : ctaid=(62,0,0) tid=(95,0,0)
GPGPU-Sim PTX: 9500000 instructions simulated : ctaid=(21,0,0) tid=(31,0,0)
GPGPU-Sim PTX: 9600000 instructions simulated : ctaid=(73,0,0) tid=(63,0,0)
GPGPU-Sim PTX: 9700000 instructions simulated : ctaid=(18,0,0) tid=(31,0,0)
GPGPU-Sim uArch: cycles simulated: 32500  inst.: 9768544 (ipc=300.6) sim_rate=424719 (inst/sec) elapsed = 0:0:00:23 / Sun Feb 28 21:40:12 2016
GPGPU-Sim PTX: 9800000 instructions simulated : ctaid=(6,0,0) tid=(95,0,0)
GPGPU-Sim PTX: 9900000 instructions simulated : ctaid=(56,0,0) tid=(95,0,0)
GPGPU-Sim PTX: 10000000 instructions simulated : ctaid=(65,0,0) tid=(95,0,0)
GPGPU-Sim PTX: 10100000 instructions simulated : ctaid=(25,0,0) tid=(95,0,0)
GPGPU-Sim PTX: 10200000 instructions simulated : ctaid=(40,0,0) tid=(31,0,0)
GPGPU-Sim uArch: cycles simulated: 34000  inst.: 10206080 (ipc=300.2) sim_rate=425253 (inst/sec) elapsed = 0:0:00:24 / Sun Feb 28 21:40:13 2016
GPGPU-Sim PTX: 10300000 instructions simulated : ctaid=(29,0,0) tid=(95,0,0)
GPGPU-Sim PTX: 10400000 instructions simulated : ctaid=(67,0,0) tid=(63,0,0)
GPGPU-Sim PTX: 10500000 instructions simulated : ctaid=(63,0,0) tid=(31,0,0)
GPGPU-Sim PTX: 10600000 instructions simulated : ctaid=(76,0,0) tid=(31,0,0)
GPGPU-Sim uArch: cycles simulated: 35500  inst.: 10645760 (ipc=299.9) sim_rate=425830 (inst/sec) elapsed = 0:0:00:25 / Sun Feb 28 21:40:14 2016
GPGPU-Sim PTX: 10700000 instructions simulated : ctaid=(3,0,0) tid=(31,0,0)
GPGPU-Sim PTX: 10800000 instructions simulated : ctaid=(0,0,0) tid=(63,0,0)
GPGPU-Sim PTX: 10900000 instructions simulated : ctaid=(25,0,0) tid=(127,0,0)
GPGPU-Sim PTX: 11000000 instructions simulated : ctaid=(96,0,0) tid=(31,0,0)
GPGPU-Sim PTX: 11100000 instructions simulated : ctaid=(4,0,0) tid=(95,0,0)
GPGPU-Sim PTX: 11200000 instructions simulated : ctaid=(52,0,0) tid=(63,0,0)
GPGPU-Sim uArch: cycles simulated: 37500  inst.: 11215616 (ipc=299.1) sim_rate=431369 (inst/sec) elapsed = 0:0:00:26 / Sun Feb 28 21:40:15 2016
GPGPU-Sim PTX: 11300000 instructions simulated : ctaid=(39,0,0) tid=(31,0,0)
GPGPU-Sim PTX: 11400000 instructions simulated : ctaid=(71,0,0) tid=(127,0,0)
GPGPU-Sim PTX: 11500000 instructions simulated : ctaid=(61,0,0) tid=(31,0,0)
GPGPU-Sim PTX: 11600000 instructions simulated : ctaid=(29,0,0) tid=(63,0,0)
GPGPU-Sim PTX: 11700000 instructions simulated : ctaid=(12,0,0) tid=(31,0,0)
GPGPU-Sim uArch: cycles simulated: 39000  inst.: 11687840 (ipc=299.7) sim_rate=432882 (inst/sec) elapsed = 0:0:00:27 / Sun Feb 28 21:40:16 2016
GPGPU-Sim PTX: 11800000 instructions simulated : ctaid=(8,0,0) tid=(63,0,0)
GPGPU-Sim PTX: 11900000 instructions simulated : ctaid=(45,0,0) tid=(31,0,0)
GPGPU-Sim PTX: 12000000 instructions simulated : ctaid=(28,0,0) tid=(95,0,0)
GPGPU-Sim PTX: 12100000 instructions simulated : ctaid=(58,0,0) tid=(31,0,0)
GPGPU-Sim uArch: cycles simulated: 40500  inst.: 12121088 (ipc=299.3) sim_rate=432896 (inst/sec) elapsed = 0:0:00:28 / Sun Feb 28 21:40:17 2016
GPGPU-Sim PTX: 12200000 instructions simulated : ctaid=(34,0,0) tid=(95,0,0)
GPGPU-Sim PTX: 12300000 instructions simulated : ctaid=(22,0,0) tid=(31,0,0)
GPGPU-Sim PTX: 12400000 instructions simulated : ctaid=(12,0,0) tid=(31,0,0)
GPGPU-Sim PTX: 12500000 instructions simulated : ctaid=(21,0,0) tid=(127,0,0)
GPGPU-Sim uArch: cycles simulated: 42000  inst.: 12544928 (ipc=298.7) sim_rate=432583 (inst/sec) elapsed = 0:0:00:29 / Sun Feb 28 21:40:18 2016
GPGPU-Sim PTX: 12600000 instructions simulated : ctaid=(9,0,0) tid=(127,0,0)
GPGPU-Sim PTX: 12700000 instructions simulated : ctaid=(27,0,0) tid=(127,0,0)
GPGPU-Sim PTX: 12800000 instructions simulated : ctaid=(12,0,0) tid=(95,0,0)
GPGPU-Sim PTX: 12900000 instructions simulated : ctaid=(35,0,0) tid=(63,0,0)
GPGPU-Sim PTX: 13000000 instructions simulated : ctaid=(32,0,0) tid=(127,0,0)
GPGPU-Sim uArch: cycles simulated: 43500  inst.: 13003712 (ipc=298.9) sim_rate=433457 (inst/sec) elapsed = 0:0:00:30 / Sun Feb 28 21:40:19 2016
GPGPU-Sim PTX: 13100000 instructions simulated : ctaid=(43,0,0) tid=(31,0,0)
GPGPU-Sim PTX: 13200000 instructions simulated : ctaid=(29,0,0) tid=(95,0,0)
GPGPU-Sim PTX: 13300000 instructions simulated : ctaid=(64,0,0) tid=(31,0,0)
GPGPU-Sim PTX: 13400000 instructions simulated : ctaid=(59,0,0) tid=(95,0,0)
GPGPU-Sim uArch: cycles simulated: 45000  inst.: 13432288 (ipc=298.5) sim_rate=433299 (inst/sec) elapsed = 0:0:00:31 / Sun Feb 28 21:40:20 2016
GPGPU-Sim PTX: 13500000 instructions simulated : ctaid=(29,0,0) tid=(95,0,0)
GPGPU-Sim PTX: 13600000 instructions simulated : ctaid=(26,0,0) tid=(127,0,0)
GPGPU-Sim PTX: 13700000 instructions simulated : ctaid=(8,0,0) tid=(31,0,0)
GPGPU-Sim PTX: 13800000 instructions simulated : ctaid=(38,0,0) tid=(63,0,0)
GPGPU-Sim PTX: 13900000 instructions simulated : ctaid=(50,0,0) tid=(95,0,0)
GPGPU-Sim PTX: 14000000 instructions simulated : ctaid=(6,0,0) tid=(95,0,0)
GPGPU-Sim uArch: cycles simulated: 47000  inst.: 14009024 (ipc=298.1) sim_rate=437782 (inst/sec) elapsed = 0:0:00:32 / Sun Feb 28 21:40:21 2016
GPGPU-Sim PTX: 14100000 instructions simulated : ctaid=(5,0,0) tid=(95,0,0)
GPGPU-Sim PTX: 14200000 instructions simulated : ctaid=(21,0,0) tid=(95,0,0)
GPGPU-Sim PTX: 14300000 instructions simulated : ctaid=(36,0,0) tid=(63,0,0)
GPGPU-Sim PTX: 14400000 instructions simulated : ctaid=(32,0,0) tid=(95,0,0)
GPGPU-Sim PTX: 14500000 instructions simulated : ctaid=(14,0,0) tid=(31,0,0)
GPGPU-Sim uArch: cycles simulated: 48500  inst.: 14474912 (ipc=298.5) sim_rate=438633 (inst/sec) elapsed = 0:0:00:33 / Sun Feb 28 21:40:22 2016
GPGPU-Sim PTX: 14600000 instructions simulated : ctaid=(98,0,0) tid=(95,0,0)
GPGPU-Sim PTX: 14700000 instructions simulated : ctaid=(50,0,0) tid=(95,0,0)
GPGPU-Sim PTX: 14800000 instructions simulated : ctaid=(3,0,0) tid=(31,0,0)
GPGPU-Sim PTX: 14900000 instructions simulated : ctaid=(20,0,0) tid=(127,0,0)
GPGPU-Sim uArch: cycles simulated: 50000  inst.: 14895904 (ipc=297.9) sim_rate=438114 (inst/sec) elapsed = 0:0:00:34 / Sun Feb 28 21:40:23 2016
GPGPU-Sim PTX: 15000000 instructions simulated : ctaid=(8,0,0) tid=(63,0,0)
GPGPU-Sim PTX: 15100000 instructions simulated : ctaid=(35,0,0) tid=(95,0,0)
GPGPU-Sim PTX: 15200000 instructions simulated : ctaid=(8,0,0) tid=(31,0,0)
GPGPU-Sim PTX: 15300000 instructions simulated : ctaid=(0,0,0) tid=(127,0,0)
GPGPU-Sim uArch: cycles simulated: 51500  inst.: 15342048 (ipc=297.9) sim_rate=438344 (inst/sec) elapsed = 0:0:00:35 / Sun Feb 28 21:40:24 2016
GPGPU-Sim PTX: 15400000 instructions simulated : ctaid=(52,0,0) tid=(31,0,0)
GPGPU-Sim PTX: 15500000 instructions simulated : ctaid=(25,0,0) tid=(63,0,0)
GPGPU-Sim PTX: 15600000 instructions simulated : ctaid=(37,0,0) tid=(31,0,0)
GPGPU-Sim PTX: 15700000 instructions simulated : ctaid=(47,0,0) tid=(31,0,0)
GPGPU-Sim PTX: 15800000 instructions simulated : ctaid=(0,0,0) tid=(63,0,0)
GPGPU-Sim uArch: cycles simulated: 53000  inst.: 15789184 (ipc=297.9) sim_rate=438588 (inst/sec) elapsed = 0:0:00:36 / Sun Feb 28 21:40:25 2016
GPGPU-Sim PTX: 15900000 instructions simulated : ctaid=(13,0,0) tid=(127,0,0)
GPGPU-Sim PTX: 16000000 instructions simulated : ctaid=(53,0,0) tid=(31,0,0)
GPGPU-Sim PTX: 16100000 instructions simulated : ctaid=(33,0,0) tid=(95,0,0)
GPGPU-Sim PTX: 16200000 instructions simulated : ctaid=(48,0,0) tid=(95,0,0)
GPGPU-Sim uArch: cycles simulated: 54500  inst.: 16233632 (ipc=297.9) sim_rate=438746 (inst/sec) elapsed = 0:0:00:37 / Sun Feb 28 21:40:26 2016
GPGPU-Sim PTX: 16300000 instructions simulated : ctaid=(3,0,0) tid=(95,0,0)
GPGPU-Sim PTX: 16400000 instructions simulated : ctaid=(16,0,0) tid=(127,0,0)
GPGPU-Sim PTX: 16500000 instructions simulated : ctaid=(46,0,0) tid=(95,0,0)
GPGPU-Sim PTX: 16600000 instructions simulated : ctaid=(9,0,0) tid=(95,0,0)
GPGPU-Sim PTX: 16700000 instructions simulated : ctaid=(32,0,0) tid=(95,0,0)
GPGPU-Sim PTX: 16800000 instructions simulated : ctaid=(54,0,0) tid=(31,0,0)
GPGPU-Sim uArch: cycles simulated: 56500  inst.: 16847648 (ipc=298.2) sim_rate=443359 (inst/sec) elapsed = 0:0:00:38 / Sun Feb 28 21:40:27 2016
GPGPU-Sim PTX: 16900000 instructions simulated : ctaid=(40,0,0) tid=(95,0,0)
GPGPU-Sim PTX: 17000000 instructions simulated : ctaid=(19,0,0) tid=(95,0,0)
GPGPU-Sim PTX: 17100000 instructions simulated : ctaid=(39,0,0) tid=(63,0,0)
GPGPU-Sim PTX: 17200000 instructions simulated : ctaid=(67,0,0) tid=(31,0,0)
GPGPU-Sim PTX: 17300000 instructions simulated : ctaid=(13,0,0) tid=(63,0,0)
GPGPU-Sim uArch: cycles simulated: 58000  inst.: 17277760 (ipc=297.9) sim_rate=443019 (inst/sec) elapsed = 0:0:00:39 / Sun Feb 28 21:40:28 2016
GPGPU-Sim PTX: 17400000 instructions simulated : ctaid=(63,0,0) tid=(31,0,0)
GPGPU-Sim PTX: 17500000 instructions simulated : ctaid=(25,0,0) tid=(63,0,0)
GPGPU-Sim PTX: 17600000 instructions simulated : ctaid=(59,0,0) tid=(95,0,0)
GPGPU-Sim PTX: 17700000 instructions simulated : ctaid=(28,0,0) tid=(127,0,0)
GPGPU-Sim uArch: cycles simulated: 59500  inst.: 17709216 (ipc=297.6) sim_rate=442730 (inst/sec) elapsed = 0:0:00:40 / Sun Feb 28 21:40:29 2016
GPGPU-Sim PTX: 17800000 instructions simulated : ctaid=(53,0,0) tid=(31,0,0)
GPGPU-Sim PTX: 17900000 instructions simulated : ctaid=(104,0,0) tid=(95,0,0)
GPGPU-Sim PTX: 18000000 instructions simulated : ctaid=(38,0,0) tid=(95,0,0)
GPGPU-Sim PTX: 18100000 instructions simulated : ctaid=(46,0,0) tid=(95,0,0)
GPGPU-Sim PTX: 18200000 instructions simulated : ctaid=(47,0,0) tid=(63,0,0)
GPGPU-Sim uArch: cycles simulated: 61000  inst.: 18199296 (ipc=298.3) sim_rate=443885 (inst/sec) elapsed = 0:0:00:41 / Sun Feb 28 21:40:30 2016
GPGPU-Sim PTX: 18300000 instructions simulated : ctaid=(15,0,0) tid=(95,0,0)
GPGPU-Sim PTX: 18400000 instructions simulated : ctaid=(19,0,0) tid=(127,0,0)
GPGPU-Sim PTX: 18500000 instructions simulated : ctaid=(2,0,0) tid=(31,0,0)
GPGPU-Sim PTX: 18600000 instructions simulated : ctaid=(9,0,0) tid=(31,0,0)
GPGPU-Sim uArch: cycles simulated: 62500  inst.: 18615616 (ipc=297.8) sim_rate=443228 (inst/sec) elapsed = 0:0:00:42 / Sun Feb 28 21:40:31 2016
GPGPU-Sim PTX: 18700000 instructions simulated : ctaid=(4,0,0) tid=(127,0,0)
GPGPU-Sim PTX: 18800000 instructions simulated : ctaid=(13,0,0) tid=(63,0,0)
GPGPU-Sim PTX: 18900000 instructions simulated : ctaid=(70,0,0) tid=(31,0,0)
GPGPU-Sim PTX: 19000000 instructions simulated : ctaid=(40,0,0) tid=(127,0,0)
GPGPU-Sim PTX: 19100000 instructions simulated : ctaid=(67,0,0) tid=(31,0,0)
GPGPU-Sim PTX: 19200000 instructions simulated : ctaid=(45,0,0) tid=(127,0,0)
GPGPU-Sim uArch: cycles simulated: 64500  inst.: 19216448 (ipc=297.9) sim_rate=446894 (inst/sec) elapsed = 0:0:00:43 / Sun Feb 28 21:40:32 2016
GPGPU-Sim PTX: 19300000 instructions simulated : ctaid=(27,0,0) tid=(31,0,0)
GPGPU-Sim PTX: 19400000 instructions simulated : ctaid=(46,0,0) tid=(127,0,0)
GPGPU-Sim PTX: 19500000 instructions simulated : ctaid=(38,0,0) tid=(95,0,0)
GPGPU-Sim PTX: 19600000 instructions simulated : ctaid=(54,0,0) tid=(127,0,0)
GPGPU-Sim uArch: cycles simulated: 66000  inst.: 19644608 (ipc=297.6) sim_rate=446468 (inst/sec) elapsed = 0:0:00:44 / Sun Feb 28 21:40:33 2016
GPGPU-Sim PTX: 19700000 instructions simulated : ctaid=(6,0,0) tid=(127,0,0)
GPGPU-Sim PTX: 19800000 instructions simulated : ctaid=(26,0,0) tid=(31,0,0)
GPGPU-Sim PTX: 19900000 instructions simulated : ctaid=(3,0,0) tid=(95,0,0)
GPGPU-Sim PTX: 20000000 instructions simulated : ctaid=(15,0,0) tid=(95,0,0)
GPGPU-Sim uArch: cycles simulated: 67500  inst.: 20066176 (ipc=297.3) sim_rate=445915 (inst/sec) elapsed = 0:0:00:45 / Sun Feb 28 21:40:34 2016
GPGPU-Sim PTX: 20100000 instructions simulated : ctaid=(24,0,0) tid=(63,0,0)
GPGPU-Sim PTX: 20200000 instructions simulated : ctaid=(18,0,0) tid=(31,0,0)
GPGPU-Sim PTX: 20300000 instructions simulated : ctaid=(25,0,0) tid=(63,0,0)
GPGPU-Sim PTX: 20400000 instructions simulated : ctaid=(28,0,0) tid=(127,0,0)
GPGPU-Sim PTX: 20500000 instructions simulated : ctaid=(28,0,0) tid=(127,0,0)
GPGPU-Sim uArch: cycles simulated: 69000  inst.: 20539744 (ipc=297.7) sim_rate=446516 (inst/sec) elapsed = 0:0:00:46 / Sun Feb 28 21:40:35 2016
GPGPU-Sim PTX: 20600000 instructions simulated : ctaid=(23,0,0) tid=(31,0,0)
GPGPU-Sim PTX: 20700000 instructions simulated : ctaid=(44,0,0) tid=(95,0,0)
GPGPU-Sim PTX: 20800000 instructions simulated : ctaid=(29,0,0) tid=(127,0,0)
GPGPU-Sim PTX: 20900000 instructions simulated : ctaid=(18,0,0) tid=(63,0,0)
GPGPU-Sim PTX: 21000000 instructions simulated : ctaid=(24,0,0) tid=(63,0,0)
GPGPU-Sim uArch: cycles simulated: 70500  inst.: 20980960 (ipc=297.6) sim_rate=446403 (inst/sec) elapsed = 0:0:00:47 / Sun Feb 28 21:40:36 2016
GPGPU-Sim PTX: 21100000 instructions simulated : ctaid=(5,0,0) tid=(127,0,0)
GPGPU-Sim PTX: 21200000 instructions simulated : ctaid=(23,0,0) tid=(95,0,0)
GPGPU-Sim PTX: 21300000 instructions simulated : ctaid=(25,0,0) tid=(63,0,0)
GPGPU-Sim PTX: 21400000 instructions simulated : ctaid=(49,0,0) tid=(95,0,0)
GPGPU-Sim uArch: cycles simulated: 72000  inst.: 21420576 (ipc=297.5) sim_rate=446262 (inst/sec) elapsed = 0:0:00:48 / Sun Feb 28 21:40:37 2016
GPGPU-Sim PTX: 21500000 instructions simulated : ctaid=(38,0,0) tid=(31,0,0)
GPGPU-Sim PTX: 21600000 instructions simulated : ctaid=(29,0,0) tid=(31,0,0)
GPGPU-Sim PTX: 21700000 instructions simulated : ctaid=(23,0,0) tid=(127,0,0)
GPGPU-Sim PTX: 21800000 instructions simulated : ctaid=(0,0,0) tid=(63,0,0)
GPGPU-Sim uArch: cycles simulated: 73500  inst.: 21865920 (ipc=297.5) sim_rate=446243 (inst/sec) elapsed = 0:0:00:49 / Sun Feb 28 21:40:38 2016
GPGPU-Sim PTX: 21900000 instructions simulated : ctaid=(7,0,0) tid=(95,0,0)
GPGPU-Sim PTX: 22000000 instructions simulated : ctaid=(64,0,0) tid=(31,0,0)
GPGPU-Sim PTX: 22100000 instructions simulated : ctaid=(59,0,0) tid=(127,0,0)
GPGPU-Sim PTX: 22200000 instructions simulated : ctaid=(17,0,0) tid=(63,0,0)
GPGPU-Sim PTX: 22300000 instructions simulated : ctaid=(33,0,0) tid=(31,0,0)
GPGPU-Sim uArch: cycles simulated: 75000  inst.: 22307296 (ipc=297.4) sim_rate=446145 (inst/sec) elapsed = 0:0:00:50 / Sun Feb 28 21:40:39 2016
GPGPU-Sim PTX: 22400000 instructions simulated : ctaid=(52,0,0) tid=(63,0,0)
GPGPU-Sim PTX: 22500000 instructions simulated : ctaid=(26,0,0) tid=(63,0,0)
GPGPU-Sim PTX: 22600000 instructions simulated : ctaid=(0,0,0) tid=(127,0,0)
GPGPU-Sim PTX: 22700000 instructions simulated : ctaid=(35,0,0) tid=(31,0,0)
GPGPU-Sim PTX: 22800000 instructions simulated : ctaid=(34,0,0) tid=(127,0,0)
GPGPU-Sim PTX: 22900000 instructions simulated : ctaid=(66,0,0) tid=(95,0,0)
GPGPU-Sim uArch: cycles simulated: 77000  inst.: 22881312 (ipc=297.2) sim_rate=448653 (inst/sec) elapsed = 0:0:00:51 / Sun Feb 28 21:40:40 2016
GPGPU-Sim PTX: 23000000 instructions simulated : ctaid=(35,0,0) tid=(63,0,0)
GPGPU-Sim PTX: 23100000 instructions simulated : ctaid=(10,0,0) tid=(63,0,0)
GPGPU-Sim PTX: 23200000 instructions simulated : ctaid=(44,0,0) tid=(31,0,0)
GPGPU-Sim PTX: 23300000 instructions simulated : ctaid=(33,0,0) tid=(63,0,0)
GPGPU-Sim uArch: cycles simulated: 78500  inst.: 23297728 (ipc=296.8) sim_rate=448033 (inst/sec) elapsed = 0:0:00:52 / Sun Feb 28 21:40:41 2016
GPGPU-Sim PTX: 23400000 instructions simulated : ctaid=(81,0,0) tid=(95,0,0)
GPGPU-Sim PTX: 23500000 instructions simulated : ctaid=(33,0,0) tid=(31,0,0)
GPGPU-Sim PTX: 23600000 instructions simulated : ctaid=(38,0,0) tid=(95,0,0)
GPGPU-Sim PTX: 23700000 instructions simulated : ctaid=(82,0,0) tid=(31,0,0)
GPGPU-Sim uArch: cycles simulated: 80000  inst.: 23732608 (ipc=296.7) sim_rate=447785 (inst/sec) elapsed = 0:0:00:53 / Sun Feb 28 21:40:42 2016
GPGPU-Sim PTX: 23800000 instructions simulated : ctaid=(13,0,0) tid=(63,0,0)
GPGPU-Sim PTX: 23900000 instructions simulated : ctaid=(64,0,0) tid=(31,0,0)
GPGPU-Sim PTX: 24000000 instructions simulated : ctaid=(96,0,0) tid=(31,0,0)
GPGPU-Sim PTX: 24100000 instructions simulated : ctaid=(58,0,0) tid=(127,0,0)
GPGPU-Sim uArch: cycles simulated: 81500  inst.: 24157760 (ipc=296.4) sim_rate=447365 (inst/sec) elapsed = 0:0:00:54 / Sun Feb 28 21:40:43 2016
GPGPU-Sim PTX: 24200000 instructions simulated : ctaid=(21,0,0) tid=(127,0,0)
GPGPU-Sim PTX: 24300000 instructions simulated : ctaid=(37,0,0) tid=(63,0,0)
GPGPU-Sim PTX: 24400000 instructions simulated : ctaid=(16,0,0) tid=(63,0,0)
GPGPU-Sim PTX: 24500000 instructions simulated : ctaid=(35,0,0) tid=(95,0,0)
GPGPU-Sim PTX: 24600000 instructions simulated : ctaid=(104,0,0) tid=(95,0,0)
GPGPU-Sim uArch: cycles simulated: 83000  inst.: 24598624 (ipc=296.4) sim_rate=447247 (inst/sec) elapsed = 0:0:00:55 / Sun Feb 28 21:40:44 2016
GPGPU-Sim PTX: 24700000 instructions simulated : ctaid=(68,0,0) tid=(127,0,0)
GPGPU-Sim PTX: 24800000 instructions simulated : ctaid=(0,0,0) tid=(63,0,0)
GPGPU-Sim PTX: 24900000 instructions simulated : ctaid=(97,0,0) tid=(31,0,0)
GPGPU-Sim PTX: 25000000 instructions simulated : ctaid=(9,0,0) tid=(127,0,0)
GPGPU-Sim PTX: 25100000 instructions simulated : ctaid=(61,0,0) tid=(31,0,0)
GPGPU-Sim PTX: 25200000 instructions simulated : ctaid=(5,0,0) tid=(127,0,0)
GPGPU-Sim uArch: cycles simulated: 85000  inst.: 25181024 (ipc=296.2) sim_rate=449661 (inst/sec) elapsed = 0:0:00:56 / Sun Feb 28 21:40:45 2016
GPGPU-Sim PTX: 25300000 instructions simulated : ctaid=(103,0,0) tid=(31,0,0)
GPGPU-Sim PTX: 25400000 instructions simulated : ctaid=(42,0,0) tid=(31,0,0)
GPGPU-Sim PTX: 25500000 instructions simulated : ctaid=(1,0,0) tid=(127,0,0)
GPGPU-Sim PTX: 25600000 instructions simulated : ctaid=(31,0,0) tid=(31,0,0)
GPGPU-Sim uArch: cycles simulated: 86500  inst.: 25638624 (ipc=296.4) sim_rate=449800 (inst/sec) elapsed = 0:0:00:57 / Sun Feb 28 21:40:46 2016
GPGPU-Sim PTX: 25700000 instructions simulated : ctaid=(47,0,0) tid=(31,0,0)
GPGPU-Sim PTX: 25800000 instructions simulated : ctaid=(22,0,0) tid=(63,0,0)
GPGPU-Sim uArch: Shader 8 finished CTA #0 (87105,0), 7 CTAs running
GPGPU-Sim uArch: core:  8, cta: 0 initialized @(87106,0)
GPGPU-Sim PTX: 25900000 instructions simulated : ctaid=(15,0,0) tid=(127,0,0)
GPGPU-Sim uArch: Shader 5 finished CTA #0 (87392,0), 7 CTAs running
GPGPU-Sim uArch: core:  5, cta: 0 initialized @(87393,0)
GPGPU-Sim uArch: Shader 13 finished CTA #0 (87489,0), 7 CTAs running
GPGPU-Sim uArch: core: 13, cta: 0 initialized @(87490,0)
GPGPU-Sim PTX: 26000000 instructions simulated : ctaid=(50,0,0) tid=(95,0,0)
GPGPU-Sim PTX: 26100000 instructions simulated : ctaid=(52,0,0) tid=(95,0,0)
GPGPU-Sim uArch: cycles simulated: 88000  inst.: 26087680 (ipc=296.5) sim_rate=449787 (inst/sec) elapsed = 0:0:00:58 / Sun Feb 28 21:40:47 2016
GPGPU-Sim uArch: Shader 14 finished CTA #0 (88158,0), 7 CTAs running
GPGPU-Sim uArch: core: 14, cta: 0 initialized @(88159,0)
GPGPU-Sim PTX: 26200000 instructions simulated : ctaid=(111,0,0) tid=(31,0,0)
GPGPU-Sim uArch: Shader 7 finished CTA #0 (88322,0), 7 CTAs running
GPGPU-Sim uArch: core:  7, cta: 0 initialized @(88323,0)
GPGPU-Sim PTX: 26300000 instructions simulated : ctaid=(101,0,0) tid=(31,0,0)
GPGPU-Sim uArch: Shader 12 finished CTA #0 (88731,0), 7 CTAs running
GPGPU-Sim uArch: core: 12, cta: 0 initialized @(88732,0)
GPGPU-Sim PTX: 26400000 instructions simulated : ctaid=(52,0,0) tid=(63,0,0)
GPGPU-Sim PTX: 26500000 instructions simulated : ctaid=(102,0,0) tid=(31,0,0)
GPGPU-Sim uArch: cycles simulated: 89500  inst.: 26537344 (ipc=296.5) sim_rate=449785 (inst/sec) elapsed = 0:0:00:59 / Sun Feb 28 21:40:48 2016
GPGPU-Sim PTX: 26600000 instructions simulated : ctaid=(85,0,0) tid=(95,0,0)
GPGPU-Sim uArch: Shader 4 finished CTA #0 (89777,0), 7 CTAs running
GPGPU-Sim uArch: core:  4, cta: 0 initialized @(89778,0)
GPGPU-Sim PTX: 26700000 instructions simulated : ctaid=(32,0,0) tid=(127,0,0)
GPGPU-Sim PTX: 26800000 instructions simulated : ctaid=(76,0,0) tid=(95,0,0)
GPGPU-Sim uArch: Shader 2 finished CTA #0 (90503,0), 7 CTAs running
GPGPU-Sim uArch: core:  2, cta: 0 initialized @(90504,0)
GPGPU-Sim PTX: 26900000 instructions simulated : ctaid=(54,0,0) tid=(31,0,0)
GPGPU-Sim uArch: Shader 1 finished CTA #0 (90865,0), 7 CTAs running
GPGPU-Sim uArch: core:  1, cta: 0 initialized @(90866,0)
GPGPU-Sim uArch: cycles simulated: 91000  inst.: 26956384 (ipc=296.2) sim_rate=449273 (inst/sec) elapsed = 0:0:01:00 / Sun Feb 28 21:40:49 2016
GPGPU-Sim PTX: 27000000 instructions simulated : ctaid=(100,0,0) tid=(31,0,0)
GPGPU-Sim PTX: 27100000 instructions simulated : ctaid=(61,0,0) tid=(31,0,0)
GPGPU-Sim PTX: 27200000 instructions simulated : ctaid=(75,0,0) tid=(31,0,0)
GPGPU-Sim PTX: 27300000 instructions simulated : ctaid=(69,0,0) tid=(31,0,0)
GPGPU-Sim uArch: Shader 10 finished CTA #0 (92106,0), 7 CTAs running
GPGPU-Sim uArch: core: 10, cta: 0 initialized @(92107,0)
GPGPU-Sim PTX: 27400000 instructions simulated : ctaid=(57,0,0) tid=(95,0,0)
GPGPU-Sim uArch: cycles simulated: 92500  inst.: 27405568 (ipc=296.3) sim_rate=449271 (inst/sec) elapsed = 0:0:01:01 / Sun Feb 28 21:40:50 2016
GPGPU-Sim PTX: 27500000 instructions simulated : ctaid=(116,0,0) tid=(31,0,0)
GPGPU-Sim PTX: 27600000 instructions simulated : ctaid=(71,0,0) tid=(31,0,0)
GPGPU-Sim uArch: Shader 6 finished CTA #0 (93103,0), 7 CTAs running
GPGPU-Sim uArch: core:  6, cta: 0 initialized @(93104,0)
GPGPU-Sim PTX: 27700000 instructions simulated : ctaid=(47,0,0) tid=(31,0,0)
GPGPU-Sim PTX: 27800000 instructions simulated : ctaid=(60,0,0) tid=(95,0,0)
GPGPU-Sim uArch: Shader 0 finished CTA #0 (93811,0), 7 CTAs running
GPGPU-Sim uArch: core:  0, cta: 0 initialized @(93812,0)
GPGPU-Sim uArch: cycles simulated: 94000  inst.: 27831808 (ipc=296.1) sim_rate=448900 (inst/sec) elapsed = 0:0:01:02 / Sun Feb 28 21:40:51 2016
GPGPU-Sim PTX: 27900000 instructions simulated : ctaid=(75,0,0) tid=(95,0,0)
GPGPU-Sim uArch: Shader 11 finished CTA #0 (94134,0), 7 CTAs running
GPGPU-Sim uArch: core: 11, cta: 0 initialized @(94135,0)
GPGPU-Sim PTX: 28000000 instructions simulated : ctaid=(15,0,0) tid=(63,0,0)
GPGPU-Sim PTX: 28100000 instructions simulated : ctaid=(101,0,0) tid=(127,0,0)
GPGPU-Sim PTX: 28200000 instructions simulated : ctaid=(46,0,0) tid=(127,0,0)
GPGPU-Sim PTX: 28300000 instructions simulated : ctaid=(84,0,0) tid=(95,0,0)
GPGPU-Sim PTX: 28400000 instructions simulated : ctaid=(78,0,0) tid=(95,0,0)
GPGPU-Sim uArch: cycles simulated: 96000  inst.: 28441696 (ipc=296.3) sim_rate=451455 (inst/sec) elapsed = 0:0:01:03 / Sun Feb 28 21:40:52 2016
GPGPU-Sim PTX: 28500000 instructions simulated : ctaid=(67,0,0) tid=(31,0,0)
GPGPU-Sim PTX: 28600000 instructions simulated : ctaid=(41,0,0) tid=(127,0,0)
GPGPU-Sim PTX: 28700000 instructions simulated : ctaid=(117,0,0) tid=(95,0,0)
GPGPU-Sim uArch: Shader 3 finished CTA #0 (96936,0), 7 CTAs running
GPGPU-Sim uArch: core:  3, cta: 0 initialized @(96937,0)
GPGPU-Sim PTX: 28800000 instructions simulated : ctaid=(79,0,0) tid=(31,0,0)
GPGPU-Sim uArch: Shader 9 finished CTA #0 (97336,0), 7 CTAs running
GPGPU-Sim uArch: core:  9, cta: 0 initialized @(97337,0)
GPGPU-Sim PTX: 28900000 instructions simulated : ctaid=(56,0,0) tid=(127,0,0)
GPGPU-Sim uArch: cycles simulated: 97500  inst.: 28892832 (ipc=296.3) sim_rate=451450 (inst/sec) elapsed = 0:0:01:04 / Sun Feb 28 21:40:53 2016
GPGPU-Sim PTX: 29000000 instructions simulated : ctaid=(122,0,0) tid=(95,0,0)
GPGPU-Sim PTX: 29100000 instructions simulated : ctaid=(21,0,0) tid=(63,0,0)
GPGPU-Sim PTX: 29200000 instructions simulated : ctaid=(78,0,0) tid=(95,0,0)
GPGPU-Sim PTX: 29300000 instructions simulated : ctaid=(93,0,0) tid=(95,0,0)
GPGPU-Sim uArch: cycles simulated: 99000  inst.: 29302720 (ipc=296.0) sim_rate=450811 (inst/sec) elapsed = 0:0:01:05 / Sun Feb 28 21:40:54 2016
GPGPU-Sim PTX: 29400000 instructions simulated : ctaid=(49,0,0) tid=(63,0,0)
GPGPU-Sim PTX: 29500000 instructions simulated : ctaid=(41,0,0) tid=(127,0,0)
GPGPU-Sim uArch: Shader 8 finished CTA #1 (99494,0), 7 CTAs running
GPGPU-Sim uArch: core:  8, cta: 1 initialized @(99495,0)
GPGPU-Sim PTX: 29600000 instructions simulated : ctaid=(70,0,0) tid=(95,0,0)
GPGPU-Sim PTX: 29700000 instructions simulated : ctaid=(68,0,0) tid=(31,0,0)
GPGPU-Sim uArch: Shader 13 finished CTA #1 (100496,0), 7 CTAs running
GPGPU-Sim uArch: core: 13, cta: 1 initialized @(100497,0)
GPGPU-Sim uArch: cycles simulated: 100500  inst.: 29762560 (ipc=296.1) sim_rate=450947 (inst/sec) elapsed = 0:0:01:06 / Sun Feb 28 21:40:55 2016
GPGPU-Sim PTX: 29800000 instructions simulated : ctaid=(80,0,0) tid=(63,0,0)
GPGPU-Sim PTX: 29900000 instructions simulated : ctaid=(119,0,0) tid=(31,0,0)
GPGPU-Sim PTX: 30000000 instructions simulated : ctaid=(37,0,0) tid=(63,0,0)
GPGPU-Sim uArch: Shader 5 finished CTA #1 (101249,0), 7 CTAs running
GPGPU-Sim uArch: core:  5, cta: 1 initialized @(101250,0)
GPGPU-Sim PTX: 30100000 instructions simulated : ctaid=(67,0,0) tid=(95,0,0)
GPGPU-Sim uArch: Shader 12 finished CTA #1 (101548,0), 7 CTAs running
GPGPU-Sim uArch: core: 12, cta: 1 initialized @(101549,0)
GPGPU-Sim uArch: Shader 1 finished CTA #1 (101844,0), 7 CTAs running
GPGPU-Sim uArch: core:  1, cta: 1 initialized @(101845,0)
GPGPU-Sim PTX: 30200000 instructions simulated : ctaid=(77,0,0) tid=(31,0,0)
GPGPU-Sim uArch: cycles simulated: 102000  inst.: 30208352 (ipc=296.2) sim_rate=450870 (inst/sec) elapsed = 0:0:01:07 / Sun Feb 28 21:40:56 2016
GPGPU-Sim PTX: 30300000 instructions simulated : ctaid=(120,0,0) tid=(95,0,0)
GPGPU-Sim PTX: 30400000 instructions simulated : ctaid=(97,0,0) tid=(63,0,0)
GPGPU-Sim PTX: 30500000 instructions simulated : ctaid=(105,0,0) tid=(95,0,0)
GPGPU-Sim uArch: Shader 4 finished CTA #1 (103052,0), 7 CTAs running
GPGPU-Sim uArch: core:  4, cta: 1 initialized @(103053,0)
GPGPU-Sim PTX: 30600000 instructions simulated : ctaid=(62,0,0) tid=(95,0,0)
GPGPU-Sim uArch: cycles simulated: 103500  inst.: 30654816 (ipc=296.2) sim_rate=450806 (inst/sec) elapsed = 0:0:01:08 / Sun Feb 28 21:40:57 2016
GPGPU-Sim PTX: 30700000 instructions simulated : ctaid=(46,0,0) tid=(63,0,0)
GPGPU-Sim PTX: 30800000 instructions simulated : ctaid=(51,0,0) tid=(127,0,0)
GPGPU-Sim PTX: 30900000 instructions simulated : ctaid=(42,0,0) tid=(63,0,0)
GPGPU-Sim uArch: Shader 2 finished CTA #1 (104305,0), 7 CTAs running
GPGPU-Sim uArch: core:  2, cta: 1 initialized @(104306,0)
GPGPU-Sim uArch: Shader 10 finished CTA #1 (104431,0), 7 CTAs running
GPGPU-Sim uArch: core: 10, cta: 1 initialized @(104432,0)
GPGPU-Sim PTX: 31000000 instructions simulated : ctaid=(118,0,0) tid=(95,0,0)
GPGPU-Sim uArch: Shader 6 finished CTA #1 (104676,0), 7 CTAs running
GPGPU-Sim uArch: core:  6, cta: 1 initialized @(104677,0)
GPGPU-Sim PTX: 31100000 instructions simulated : ctaid=(134,0,0) tid=(31,0,0)
GPGPU-Sim uArch: cycles simulated: 105000  inst.: 31091744 (ipc=296.1) sim_rate=450604 (inst/sec) elapsed = 0:0:01:09 / Sun Feb 28 21:40:58 2016
GPGPU-Sim PTX: 31200000 instructions simulated : ctaid=(98,0,0) tid=(95,0,0)
GPGPU-Sim uArch: Shader 3 finished CTA #1 (105478,0), 7 CTAs running
GPGPU-Sim uArch: core:  3, cta: 1 initialized @(105479,0)
GPGPU-Sim PTX: 31300000 instructions simulated : ctaid=(116,0,0) tid=(95,0,0)
GPGPU-Sim uArch: Shader 7 finished CTA #1 (105753,0), 7 CTAs running
GPGPU-Sim uArch: core:  7, cta: 1 initialized @(105754,0)
GPGPU-Sim PTX: 31400000 instructions simulated : ctaid=(76,0,0) tid=(95,0,0)
GPGPU-Sim PTX: 31500000 instructions simulated : ctaid=(79,0,0) tid=(31,0,0)
GPGPU-Sim PTX: 31600000 instructions simulated : ctaid=(91,0,0) tid=(31,0,0)
GPGPU-Sim PTX: 31700000 instructions simulated : ctaid=(74,0,0) tid=(31,0,0)
GPGPU-Sim uArch: cycles simulated: 107000  inst.: 31674048 (ipc=296.0) sim_rate=452486 (inst/sec) elapsed = 0:0:01:10 / Sun Feb 28 21:40:59 2016
GPGPU-Sim PTX: 31800000 instructions simulated : ctaid=(98,0,0) tid=(95,0,0)
GPGPU-Sim uArch: Shader 11 finished CTA #1 (107350,0), 7 CTAs running
GPGPU-Sim uArch: core: 11, cta: 1 initialized @(107351,0)
GPGPU-Sim PTX: 31900000 instructions simulated : ctaid=(128,0,0) tid=(31,0,0)
GPGPU-Sim PTX: 32000000 instructions simulated : ctaid=(41,0,0) tid=(127,0,0)
GPGPU-Sim uArch: Shader 9 finished CTA #1 (108197,0), 7 CTAs running
GPGPU-Sim uArch: core:  9, cta: 1 initialized @(108198,0)
GPGPU-Sim PTX: 32100000 instructions simulated : ctaid=(131,0,0) tid=(95,0,0)
GPGPU-Sim uArch: cycles simulated: 108500  inst.: 32135456 (ipc=296.2) sim_rate=452612 (inst/sec) elapsed = 0:0:01:11 / Sun Feb 28 21:41:00 2016
GPGPU-Sim PTX: 32200000 instructions simulated : ctaid=(37,0,0) tid=(63,0,0)
GPGPU-Sim PTX: 32300000 instructions simulated : ctaid=(84,0,0) tid=(127,0,0)
GPGPU-Sim PTX: 32400000 instructions simulated : ctaid=(94,0,0) tid=(95,0,0)
GPGPU-Sim PTX: 32500000 instructions simulated : ctaid=(32,0,0) tid=(63,0,0)
GPGPU-Sim PTX: 32600000 instructions simulated : ctaid=(61,0,0) tid=(95,0,0)
GPGPU-Sim uArch: cycles simulated: 110000  inst.: 32591040 (ipc=296.3) sim_rate=452653 (inst/sec) elapsed = 0:0:01:12 / Sun Feb 28 21:41:01 2016
GPGPU-Sim PTX: 32700000 instructions simulated : ctaid=(98,0,0) tid=(31,0,0)
GPGPU-Sim PTX: 32800000 instructions simulated : ctaid=(80,0,0) tid=(31,0,0)
GPGPU-Sim PTX: 32900000 instructions simulated : ctaid=(101,0,0) tid=(95,0,0)
GPGPU-Sim PTX: 33000000 instructions simulated : ctaid=(70,0,0) tid=(95,0,0)
GPGPU-Sim uArch: Shader 0 finished CTA #1 (111285,0), 7 CTAs running
GPGPU-Sim uArch: core:  0, cta: 1 initialized @(111286,0)
GPGPU-Sim uArch: cycles simulated: 111500  inst.: 33031168 (ipc=296.2) sim_rate=452481 (inst/sec) elapsed = 0:0:01:13 / Sun Feb 28 21:41:02 2016
GPGPU-Sim PTX: 33100000 instructions simulated : ctaid=(78,0,0) tid=(31,0,0)
GPGPU-Sim PTX: 33200000 instructions simulated : ctaid=(89,0,0) tid=(63,0,0)
GPGPU-Sim PTX: 33300000 instructions simulated : ctaid=(88,0,0) tid=(31,0,0)
GPGPU-Sim PTX: 33400000 instructions simulated : ctaid=(35,0,0) tid=(63,0,0)
GPGPU-Sim uArch: cycles simulated: 113000  inst.: 33459712 (ipc=296.1) sim_rate=452158 (inst/sec) elapsed = 0:0:01:14 / Sun Feb 28 21:41:03 2016
GPGPU-Sim PTX: 33500000 instructions simulated : ctaid=(134,0,0) tid=(31,0,0)
GPGPU-Sim uArch: Shader 14 finished CTA #1 (113214,0), 7 CTAs running
GPGPU-Sim uArch: core: 14, cta: 1 initialized @(113215,0)
GPGPU-Sim PTX: 33600000 instructions simulated : ctaid=(41,0,0) tid=(127,0,0)
GPGPU-Sim PTX: 33700000 instructions simulated : ctaid=(120,0,0) tid=(31,0,0)
GPGPU-Sim PTX: 33800000 instructions simulated : ctaid=(55,0,0) tid=(63,0,0)
GPGPU-Sim PTX: 33900000 instructions simulated : ctaid=(85,0,0) tid=(31,0,0)
GPGPU-Sim uArch: cycles simulated: 114500  inst.: 33906528 (ipc=296.1) sim_rate=452087 (inst/sec) elapsed = 0:0:01:15 / Sun Feb 28 21:41:04 2016
GPGPU-Sim PTX: 34000000 instructions simulated : ctaid=(101,0,0) tid=(95,0,0)
GPGPU-Sim PTX: 34100000 instructions simulated : ctaid=(108,0,0) tid=(31,0,0)
GPGPU-Sim PTX: 34200000 instructions simulated : ctaid=(77,0,0) tid=(31,0,0)
GPGPU-Sim PTX: 34300000 instructions simulated : ctaid=(120,0,0) tid=(95,0,0)
GPGPU-Sim uArch: cycles simulated: 116000  inst.: 34329312 (ipc=295.9) sim_rate=451701 (inst/sec) elapsed = 0:0:01:16 / Sun Feb 28 21:41:05 2016
GPGPU-Sim PTX: 34400000 instructions simulated : ctaid=(112,0,0) tid=(95,0,0)
GPGPU-Sim PTX: 34500000 instructions simulated : ctaid=(81,0,0) tid=(95,0,0)
GPGPU-Sim PTX: 34600000 instructions simulated : ctaid=(81,0,0) tid=(95,0,0)
GPGPU-Sim PTX: 34700000 instructions simulated : ctaid=(112,0,0) tid=(127,0,0)
GPGPU-Sim PTX: 34800000 instructions simulated : ctaid=(79,0,0) tid=(127,0,0)
GPGPU-Sim uArch: cycles simulated: 117500  inst.: 34801664 (ipc=296.2) sim_rate=451969 (inst/sec) elapsed = 0:0:01:17 / Sun Feb 28 21:41:06 2016
GPGPU-Sim PTX: 34900000 instructions simulated : ctaid=(77,0,0) tid=(95,0,0)
GPGPU-Sim PTX: 35000000 instructions simulated : ctaid=(147,0,0) tid=(31,0,0)
GPGPU-Sim PTX: 35100000 instructions simulated : ctaid=(122,0,0) tid=(31,0,0)
GPGPU-Sim PTX: 35200000 instructions simulated : ctaid=(107,0,0) tid=(31,0,0)
GPGPU-Sim uArch: cycles simulated: 119000  inst.: 35232128 (ipc=296.1) sim_rate=451693 (inst/sec) elapsed = 0:0:01:18 / Sun Feb 28 21:41:07 2016
GPGPU-Sim PTX: 35300000 instructions simulated : ctaid=(121,0,0) tid=(95,0,0)
GPGPU-Sim PTX: 35400000 instructions simulated : ctaid=(97,0,0) tid=(63,0,0)
GPGPU-Sim uArch: Shader 5 finished CTA #2 (119583,0), 7 CTAs running
GPGPU-Sim uArch: core:  5, cta: 2 initialized @(119584,0)
GPGPU-Sim PTX: 35500000 instructions simulated : ctaid=(123,0,0) tid=(95,0,0)
GPGPU-Sim PTX: 35600000 instructions simulated : ctaid=(133,0,0) tid=(95,0,0)
GPGPU-Sim PTX: 35700000 instructions simulated : ctaid=(86,0,0) tid=(31,0,0)
GPGPU-Sim uArch: cycles simulated: 120500  inst.: 35673376 (ipc=296.0) sim_rate=451561 (inst/sec) elapsed = 0:0:01:19 / Sun Feb 28 21:41:08 2016
GPGPU-Sim PTX: 35800000 instructions simulated : ctaid=(95,0,0) tid=(95,0,0)
GPGPU-Sim PTX: 35900000 instructions simulated : ctaid=(30,0,0) tid=(127,0,0)
GPGPU-Sim PTX: 36000000 instructions simulated : ctaid=(59,0,0) tid=(127,0,0)
GPGPU-Sim uArch: Shader 13 finished CTA #2 (121745,0), 7 CTAs running
GPGPU-Sim uArch: core: 13, cta: 2 initialized @(121746,0)
GPGPU-Sim PTX: 36100000 instructions simulated : ctaid=(80,0,0) tid=(95,0,0)
GPGPU-Sim uArch: cycles simulated: 122000  inst.: 36107104 (ipc=296.0) sim_rate=451338 (inst/sec) elapsed = 0:0:01:20 / Sun Feb 28 21:41:09 2016
GPGPU-Sim PTX: 36200000 instructions simulated : ctaid=(104,0,0) tid=(31,0,0)
GPGPU-Sim PTX: 36300000 instructions simulated : ctaid=(69,0,0) tid=(127,0,0)
GPGPU-Sim PTX: 36400000 instructions simulated : ctaid=(54,0,0) tid=(127,0,0)
GPGPU-Sim PTX: 36500000 instructions simulated : ctaid=(67,0,0) tid=(127,0,0)
GPGPU-Sim uArch: Shader 1 finished CTA #2 (123455,0), 7 CTAs running
GPGPU-Sim uArch: core:  1, cta: 2 initialized @(123456,0)
GPGPU-Sim uArch: Shader 8 finished CTA #2 (123520,0), 7 CTAs running
GPGPU-Sim uArch: core:  8, cta: 2 initialized @(123521,0)
GPGPU-Sim PTX: 36600000 instructions simulated : ctaid=(131,0,0) tid=(31,0,0)
GPGPU-Sim PTX: 36700000 instructions simulated : ctaid=(65,0,0) tid=(63,0,0)
GPGPU-Sim uArch: cycles simulated: 124000  inst.: 36690624 (ipc=295.9) sim_rate=452970 (inst/sec) elapsed = 0:0:01:21 / Sun Feb 28 21:41:10 2016
GPGPU-Sim PTX: 36800000 instructions simulated : ctaid=(123,0,0) tid=(31,0,0)
GPGPU-Sim uArch: Shader 7 finished CTA #2 (124380,0), 7 CTAs running
GPGPU-Sim uArch: core:  7, cta: 2 initialized @(124381,0)
GPGPU-Sim PTX: 36900000 instructions simulated : ctaid=(102,0,0) tid=(127,0,0)
GPGPU-Sim PTX: 37000000 instructions simulated : ctaid=(141,0,0) tid=(95,0,0)
GPGPU-Sim PTX: 37100000 instructions simulated : ctaid=(119,0,0) tid=(95,0,0)
GPGPU-Sim uArch: Shader 6 finished CTA #2 (125281,0), 7 CTAs running
GPGPU-Sim uArch: core:  6, cta: 2 initialized @(125282,0)
GPGPU-Sim uArch: cycles simulated: 125500  inst.: 37136352 (ipc=295.9) sim_rate=452882 (inst/sec) elapsed = 0:0:01:22 / Sun Feb 28 21:41:11 2016
GPGPU-Sim PTX: 37200000 instructions simulated : ctaid=(112,0,0) tid=(95,0,0)
GPGPU-Sim PTX: 37300000 instructions simulated : ctaid=(105,0,0) tid=(95,0,0)
GPGPU-Sim PTX: 37400000 instructions simulated : ctaid=(96,0,0) tid=(95,0,0)
GPGPU-Sim PTX: 37500000 instructions simulated : ctaid=(106,0,0) tid=(95,0,0)
GPGPU-Sim PTX: 37600000 instructions simulated : ctaid=(62,0,0) tid=(63,0,0)
GPGPU-Sim uArch: cycles simulated: 127000  inst.: 37587488 (ipc=296.0) sim_rate=452861 (inst/sec) elapsed = 0:0:01:23 / Sun Feb 28 21:41:12 2016
GPGPU-Sim PTX: 37700000 instructions simulated : ctaid=(81,0,0) tid=(31,0,0)
GPGPU-Sim PTX: 37800000 instructions simulated : ctaid=(76,0,0) tid=(95,0,0)
GPGPU-Sim PTX: 37900000 instructions simulated : ctaid=(90,0,0) tid=(127,0,0)
GPGPU-Sim uArch: Shader 0 finished CTA #2 (128078,0), 7 CTAs running
GPGPU-Sim uArch: core:  0, cta: 2 initialized @(128079,0)
GPGPU-Sim PTX: 38000000 instructions simulated : ctaid=(116,0,0) tid=(31,0,0)
GPGPU-Sim uArch: cycles simulated: 128500  inst.: 38025088 (ipc=295.9) sim_rate=452679 (inst/sec) elapsed = 0:0:01:24 / Sun Feb 28 21:41:13 2016
GPGPU-Sim PTX: 38100000 instructions simulated : ctaid=(90,0,0) tid=(127,0,0)
GPGPU-Sim uArch: Shader 14 finished CTA #2 (128813,0), 7 CTAs running
GPGPU-Sim uArch: core: 14, cta: 2 initialized @(128814,0)
GPGPU-Sim PTX: 38200000 instructions simulated : ctaid=(132,0,0) tid=(31,0,0)
GPGPU-Sim PTX: 38300000 instructions simulated : ctaid=(87,0,0) tid=(127,0,0)
GPGPU-Sim uArch: Shader 9 finished CTA #2 (129464,0), 7 CTAs running
GPGPU-Sim uArch: core:  9, cta: 2 initialized @(129465,0)
GPGPU-Sim PTX: 38400000 instructions simulated : ctaid=(77,0,0) tid=(63,0,0)
GPGPU-Sim uArch: Shader 4 finished CTA #2 (129933,0), 7 CTAs running
GPGPU-Sim uArch: core:  4, cta: 2 initialized @(129934,0)
GPGPU-Sim PTX: 38500000 instructions simulated : ctaid=(91,0,0) tid=(95,0,0)
GPGPU-Sim uArch: cycles simulated: 130000  inst.: 38460320 (ipc=295.8) sim_rate=452474 (inst/sec) elapsed = 0:0:01:25 / Sun Feb 28 21:41:14 2016
GPGPU-Sim PTX: 38600000 instructions simulated : ctaid=(119,0,0) tid=(95,0,0)
GPGPU-Sim PTX: 38700000 instructions simulated : ctaid=(71,0,0) tid=(63,0,0)
GPGPU-Sim PTX: 38800000 instructions simulated : ctaid=(117,0,0) tid=(31,0,0)
GPGPU-Sim uArch: Shader 12 finished CTA #2 (131020,0), 7 CTAs running
GPGPU-Sim uArch: core: 12, cta: 2 initialized @(131021,0)
GPGPU-Sim uArch: Shader 10 finished CTA #2 (131204,0), 7 CTAs running
GPGPU-Sim uArch: core: 10, cta: 2 initialized @(131205,0)
GPGPU-Sim PTX: 38900000 instructions simulated : ctaid=(108,0,0) tid=(31,0,0)
GPGPU-Sim uArch: cycles simulated: 131500  inst.: 38907168 (ipc=295.9) sim_rate=452408 (inst/sec) elapsed = 0:0:01:26 / Sun Feb 28 21:41:15 2016
GPGPU-Sim PTX: 39000000 instructions simulated : ctaid=(123,0,0) tid=(95,0,0)
GPGPU-Sim PTX: 39100000 instructions simulated : ctaid=(45,0,0) tid=(63,0,0)
GPGPU-Sim uArch: Shader 11 finished CTA #2 (132222,0), 7 CTAs running
GPGPU-Sim uArch: core: 11, cta: 2 initialized @(132223,0)
GPGPU-Sim PTX: 39200000 instructions simulated : ctaid=(47,0,0) tid=(127,0,0)
GPGPU-Sim PTX: 39300000 instructions simulated : ctaid=(50,0,0) tid=(127,0,0)
GPGPU-Sim PTX: 39400000 instructions simulated : ctaid=(92,0,0) tid=(31,0,0)
GPGPU-Sim uArch: cycles simulated: 133000  inst.: 39360736 (ipc=295.9) sim_rate=452422 (inst/sec) elapsed = 0:0:01:27 / Sun Feb 28 21:41:16 2016
GPGPU-Sim PTX: 39500000 instructions simulated : ctaid=(133,0,0) tid=(31,0,0)
GPGPU-Sim PTX: 39600000 instructions simulated : ctaid=(123,0,0) tid=(31,0,0)
GPGPU-Sim PTX: 39700000 instructions simulated : ctaid=(132,0,0) tid=(31,0,0)
GPGPU-Sim PTX: 39800000 instructions simulated : ctaid=(111,0,0) tid=(31,0,0)
GPGPU-Sim uArch: cycles simulated: 134500  inst.: 39801056 (ipc=295.9) sim_rate=452284 (inst/sec) elapsed = 0:0:01:28 / Sun Feb 28 21:41:17 2016
GPGPU-Sim PTX: 39900000 instructions simulated : ctaid=(103,0,0) tid=(31,0,0)
GPGPU-Sim PTX: 40000000 instructions simulated : ctaid=(118,0,0) tid=(95,0,0)
GPGPU-Sim PTX: 40100000 instructions simulated : ctaid=(64,0,0) tid=(63,0,0)
GPGPU-Sim PTX: 40200000 instructions simulated : ctaid=(123,0,0) tid=(31,0,0)
GPGPU-Sim PTX: 40300000 instructions simulated : ctaid=(47,0,0) tid=(127,0,0)
GPGPU-Sim uArch: cycles simulated: 136000  inst.: 40263936 (ipc=296.1) sim_rate=452403 (inst/sec) elapsed = 0:0:01:29 / Sun Feb 28 21:41:18 2016
GPGPU-Sim uArch: Shader 2 finished CTA #2 (136248,0), 7 CTAs running
GPGPU-Sim uArch: core:  2, cta: 2 initialized @(136249,0)
GPGPU-Sim PTX: 40400000 instructions simulated : ctaid=(124,0,0) tid=(31,0,0)
GPGPU-Sim uArch: Shader 3 finished CTA #2 (136294,0), 7 CTAs running
GPGPU-Sim uArch: core:  3, cta: 2 initialized @(136295,0)
GPGPU-Sim PTX: 40500000 instructions simulated : ctaid=(119,0,0) tid=(127,0,0)
GPGPU-Sim PTX: 40600000 instructions simulated : ctaid=(77,0,0) tid=(95,0,0)
GPGPU-Sim PTX: 40700000 instructions simulated : ctaid=(80,0,0) tid=(63,0,0)
GPGPU-Sim uArch: cycles simulated: 137500  inst.: 40720128 (ipc=296.1) sim_rate=452445 (inst/sec) elapsed = 0:0:01:30 / Sun Feb 28 21:41:19 2016
GPGPU-Sim PTX: 40800000 instructions simulated : ctaid=(114,0,0) tid=(63,0,0)
GPGPU-Sim PTX: 40900000 instructions simulated : ctaid=(96,0,0) tid=(95,0,0)
GPGPU-Sim PTX: 41000000 instructions simulated : ctaid=(96,0,0) tid=(95,0,0)
GPGPU-Sim PTX: 41100000 instructions simulated : ctaid=(114,0,0) tid=(31,0,0)
GPGPU-Sim PTX: 41200000 instructions simulated : ctaid=(130,0,0) tid=(95,0,0)
GPGPU-Sim PTX: 41300000 instructions simulated : ctaid=(131,0,0) tid=(95,0,0)
GPGPU-Sim uArch: cycles simulated: 139500  inst.: 41294432 (ipc=296.0) sim_rate=453784 (inst/sec) elapsed = 0:0:01:31 / Sun Feb 28 21:41:20 2016
GPGPU-Sim PTX: 41400000 instructions simulated : ctaid=(103,0,0) tid=(95,0,0)
GPGPU-Sim PTX: 41500000 instructions simulated : ctaid=(69,0,0) tid=(127,0,0)
GPGPU-Sim PTX: 41600000 instructions simulated : ctaid=(157,0,0) tid=(31,0,0)
GPGPU-Sim PTX: 41700000 instructions simulated : ctaid=(56,0,0) tid=(63,0,0)
GPGPU-Sim uArch: cycles simulated: 141000  inst.: 41752576 (ipc=296.1) sim_rate=453832 (inst/sec) elapsed = 0:0:01:32 / Sun Feb 28 21:41:21 2016
GPGPU-Sim PTX: 41800000 instructions simulated : ctaid=(67,0,0) tid=(63,0,0)
GPGPU-Sim PTX: 41900000 instructions simulated : ctaid=(66,0,0) tid=(63,0,0)
GPGPU-Sim PTX: 42000000 instructions simulated : ctaid=(135,0,0) tid=(31,0,0)
GPGPU-Sim PTX: 42100000 instructions simulated : ctaid=(55,0,0) tid=(127,0,0)
GPGPU-Sim PTX: 42200000 instructions simulated : ctaid=(99,0,0) tid=(31,0,0)
GPGPU-Sim uArch: cycles simulated: 142500  inst.: 42184928 (ipc=296.0) sim_rate=453601 (inst/sec) elapsed = 0:0:01:33 / Sun Feb 28 21:41:22 2016
GPGPU-Sim PTX: 42300000 instructions simulated : ctaid=(104,0,0) tid=(95,0,0)
GPGPU-Sim PTX: 42400000 instructions simulated : ctaid=(60,0,0) tid=(63,0,0)
GPGPU-Sim PTX: 42500000 instructions simulated : ctaid=(114,0,0) tid=(31,0,0)
GPGPU-Sim PTX: 42600000 instructions simulated : ctaid=(73,0,0) tid=(63,0,0)
GPGPU-Sim uArch: cycles simulated: 144000  inst.: 42617536 (ipc=296.0) sim_rate=453378 (inst/sec) elapsed = 0:0:01:34 / Sun Feb 28 21:41:23 2016
GPGPU-Sim PTX: 42700000 instructions simulated : ctaid=(140,0,0) tid=(95,0,0)
GPGPU-Sim PTX: 42800000 instructions simulated : ctaid=(66,0,0) tid=(127,0,0)
GPGPU-Sim PTX: 42900000 instructions simulated : ctaid=(88,0,0) tid=(63,0,0)
GPGPU-Sim PTX: 43000000 instructions simulated : ctaid=(131,0,0) tid=(95,0,0)
GPGPU-Sim PTX: 43100000 instructions simulated : ctaid=(89,0,0) tid=(127,0,0)
GPGPU-Sim uArch: cycles simulated: 145500  inst.: 43080960 (ipc=296.1) sim_rate=453483 (inst/sec) elapsed = 0:0:01:35 / Sun Feb 28 21:41:24 2016
GPGPU-Sim PTX: 43200000 instructions simulated : ctaid=(121,0,0) tid=(31,0,0)
GPGPU-Sim PTX: 43300000 instructions simulated : ctaid=(62,0,0) tid=(63,0,0)
GPGPU-Sim PTX: 43400000 instructions simulated : ctaid=(68,0,0) tid=(63,0,0)
[...]
GPGPU-Sim uArch: Shader 13 finished CTA #7 (670827,0), 0 CTAs running
GPGPU-Sim uArch: Shader 13 empty (release kernel 1 '_Z15BlackScholesGPUPfS_S_S_S_ffi').
GPGPU-Sim PTX: 195900000 instructions simulated : ctaid=(477,0,0) tid=(127,0,0)
GPGPU-Sim uArch: Shader 1 finished CTA #7 (672228,0), 0 CTAs running
GPGPU-Sim uArch: Shader 1 empty (release kernel 1 '_Z15BlackScholesGPUPfS_S_S_S_ffi').
GPGPU-Sim uArch: Shader 3 finished CTA #7 (672572,0), 0 CTAs running
GPGPU-Sim uArch: Shader 3 empty (release kernel 1 '_Z15BlackScholesGPUPfS_S_S_S_ffi').
GPGPU-Sim uArch: GPU detected kernel '_Z15BlackScholesGPUPfS_S_S_S_ffi' finished on shader 3.
kernel_name = _Z15BlackScholesGPUPfS_S_S_S_ffi 
kernel_launch_uid = 1 
gpu_sim_cycle = 672573
gpu_sim_insn = 195781760
gpu_ipc =     291.0937
gpu_tot_sim_cycle = 672573
gpu_tot_sim_insn = 195781760
gpu_tot_ipc =     291.0937
gpu_tot_issued_cta = 480
gpu_stall_dramfull = 2026746
gpu_stall_icnt2sh    = 12212
gpu_total_sim_rate=437990

========= Core cache stats =========
L1I_cache:
	L1I_total_cache_accesses = 3091300
	L1I_total_cache_misses = 2584
	L1I_total_cache_miss_rate = 0.0008
	L1I_total_cache_pending_hits = 0
	L1I_total_cache_reservation_fails = 0
L1D_cache:
	L1D_cache_core[0]: Access = 20840, Miss = 20840, Miss_rate = 1.000, Pending_hits = 0, Reservation_fails = 616650
	L1D_cache_core[1]: Access = 20820, Miss = 20820, Miss_rate = 1.000, Pending_hits = 0, Reservation_fails = 617767
	L1D_cache_core[2]: Access = 20840, Miss = 20840, Miss_rate = 1.000, Pending_hits = 0, Reservation_fails = 616431
	L1D_cache_core[3]: Access = 20840, Miss = 20840, Miss_rate = 1.000, Pending_hits = 0, Reservation_fails = 621508
	L1D_cache_core[4]: Access = 20820, Miss = 20820, Miss_rate = 1.000, Pending_hits = 0, Reservation_fails = 617213
	L1D_cache_core[5]: Access = 20840, Miss = 20840, Miss_rate = 1.000, Pending_hits = 0, Reservation_fails = 607340
	L1D_cache_core[6]: Access = 20820, Miss = 20820, Miss_rate = 1.000, Pending_hits = 0, Reservation_fails = 613179
	L1D_cache_core[7]: Access = 20820, Miss = 20820, Miss_rate = 1.000, Pending_hits = 0, Reservation_fails = 616983
	L1D_cache_core[8]: Access = 20840, Miss = 20840, Miss_rate = 1.000, Pending_hits = 0, Reservation_fails = 611575
	L1D_cache_core[9]: Access = 20840, Miss = 20840, Miss_rate = 1.000, Pending_hits = 0, Reservation_fails = 608535
	L1D_cache_core[10]: Access = 20840, Miss = 20840, Miss_rate = 1.000, Pending_hits = 0, Reservation_fails = 615084
	L1D_cache_core[11]: Access = 20840, Miss = 20840, Miss_rate = 1.000, Pending_hits = 0, Reservation_fails = 610526
	L1D_cache_core[12]: Access = 20840, Miss = 20840, Miss_rate = 1.000, Pending_hits = 0, Reservation_fails = 611474
	L1D_cache_core[13]: Access = 20840, Miss = 20840, Miss_rate = 1.000, Pending_hits = 0, Reservation_fails = 616734
	L1D_cache_core[14]: Access = 20820, Miss = 20820, Miss_rate = 1.000, Pending_hits = 0, Reservation_fails = 614743
	L1D_total_cache_accesses = 312500
	L1D_total_cache_misses = 312500
	L1D_total_cache_miss_rate = 1.0000
	L1D_total_cache_pending_hits = 0
	L1D_total_cache_reservation_fails = 9215742
	L1D_cache_data_port_util = 0.000
	L1D_cache_fill_port_util = 0.019
L1C_cache:
	L1C_total_cache_accesses = 15360
	L1C_total_cache_misses = 480
	L1C_total_cache_miss_rate = 0.0312
	L1C_total_cache_pending_hits = 0
	L1C_total_cache_reservation_fails = 0
L1T_cache:
	L1T_total_cache_accesses = 0
	L1T_total_cache_misses = 0
	L1T_total_cache_pending_hits = 0
	L1T_total_cache_reservation_fails = 0

Total_core_cache_stats:
	Total_core_cache_stats_breakdown[GLOBAL_ACC_R][MISS] = 187500
	Total_core_cache_stats_breakdown[GLOBAL_ACC_R][RESERVATION_FAIL] = 7562419
	Total_core_cache_stats_breakdown[CONST_ACC_R][HIT] = 14880
	Total_core_cache_stats_breakdown[CONST_ACC_R][MISS] = 480
	Total_core_cache_stats_breakdown[GLOBAL_ACC_W][MISS] = 125000
	Total_core_cache_stats_breakdown[GLOBAL_ACC_W][RESERVATION_FAIL] = 1653323
	Total_core_cache_stats_breakdown[INST_ACC_R][HIT] = 3088716
	Total_core_cache_stats_breakdown[INST_ACC_R][MISS] = 2584
Shader 0 warp_id issue ditsribution:
warp_id:
0, 1, 2, 3, 4, 5, 6, 7, 8, 9, 10, 11, 12, 13, 14, 15, 16, 17, 18, 19, 20, 21, 22, 23, 24, 25, 26, 27, 28, 29, 30, 31, 
distro:
12831, 12831, 12831, 12831, 12831, 12831, 12831, 12831, 12734, 12734, 12734, 12734, 12734, 12734, 12734, 12734, 12734, 12734, 12734, 12734, 12734, 12734, 12734, 12734, 12734, 12734, 12734, 12734, 12734, 12734, 12734, 12734, 
gpgpu_n_tot_thrd_icount = 195904640
gpgpu_n_tot_w_icount = 6122020
gpgpu_n_stall_shd_mem = 9215742
gpgpu_n_mem_read_local = 0
gpgpu_n_mem_write_local = 0
gpgpu_n_mem_read_global = 187500
gpgpu_n_mem_write_global = 125000
gpgpu_n_mem_texture = 0
gpgpu_n_mem_const = 15
gpgpu_n_load_insn  = 6000000
gpgpu_n_store_insn = 4000000
gpgpu_n_shmem_insn = 0
gpgpu_n_tex_insn = 0
gpgpu_n_const_mem_insn = 0
gpgpu_n_param_mem_insn = 491520
gpgpu_n_shmem_bkconflict = 0
gpgpu_n_cache_bkconflict = 0
gpgpu_n_intrawarp_mshr_merge = 0
gpgpu_n_cmem_portconflict = 0
gpgpu_stall_shd_mem[c_mem][bk_conf] = 0
gpgpu_stall_shd_mem[c_mem][mshr_rc] = 0
gpgpu_stall_shd_mem[c_mem][icnt_rc] = 0
gpgpu_stall_shd_mem[c_mem][data_port_stall] = 0
gpgpu_stall_shd_mem[t_mem][mshr_rc] = 0
gpgpu_stall_shd_mem[t_mem][icnt_rc] = 0
gpgpu_stall_shd_mem[t_mem][data_port_stall] = 0
gpgpu_stall_shd_mem[s_mem][bk_conf] = 0
gpgpu_stall_shd_mem[gl_mem][bk_conf] = 0
gpgpu_stall_shd_mem[gl_mem][coal_stall] = 9215742
gpgpu_stall_shd_mem[gl_mem][data_port_stall] = 0
gpgpu_stall_shd_mem[g_mem_ld][mshr_rc] = 0
gpgpu_stall_shd_mem[g_mem_ld][icnt_rc] = 0
gpgpu_stall_shd_mem[g_mem_ld][wb_icnt_rc] = 0
gpgpu_stall_shd_mem[g_mem_ld][wb_rsrv_fail] = 0
gpgpu_stall_shd_mem[g_mem_st][mshr_rc] = 0
gpgpu_stall_shd_mem[g_mem_st][icnt_rc] = 0
gpgpu_stall_shd_mem[g_mem_st][wb_icnt_rc] = 0
gpgpu_stall_shd_mem[g_mem_st][wb_rsrv_fail] = 0
gpgpu_stall_shd_mem[l_mem_ld][mshr_rc] = 0
gpgpu_stall_shd_mem[l_mem_ld][icnt_rc] = 0
gpgpu_stall_shd_mem[l_mem_ld][wb_icnt_rc] = 0
gpgpu_stall_shd_mem[l_mem_ld][wb_rsrv_fail] = 0
gpgpu_stall_shd_mem[l_mem_st][mshr_rc] = 0
gpgpu_stall_shd_mem[l_mem_st][icnt_rc] = 0
gpgpu_stall_shd_mem[l_mem_ld][wb_icnt_rc] = 0
gpgpu_stall_shd_mem[l_mem_ld][wb_rsrv_fail] = 0
gpu_reg_bank_conflict_stalls = 0
Warp Occupancy Distribution:
Stall:12190612	W0_Idle:303408	W0_Scoreboard:1436126	W1:0	W2:0	W3:0	W4:0	W5:0	W6:0	W7:0	W8:0	W9:0	W10:0	W11:0	W12:0	W13:0	W14:0	W15:0	W16:0	W17:0	W18:0	W19:0	W20:0	W21:0	W22:0	W23:0	W24:0	W25:0	W26:0	W27:0	W28:0	W29:0	W30:0	W31:0	W32:6122020
traffic_breakdown_coretomem[CONST_ACC_R] = 120 {8:15,}
traffic_breakdown_coretomem[GLOBAL_ACC_R] = 1500000 {8:187500,}
traffic_breakdown_coretomem[GLOBAL_ACC_W] = 17000000 {136:125000,}
traffic_breakdown_coretomem[INST_ACC_R] = 960 {8:120,}
traffic_breakdown_memtocore[CONST_ACC_R] = 1080 {72:15,}
traffic_breakdown_memtocore[GLOBAL_ACC_R] = 25500000 {136:187500,}
traffic_breakdown_memtocore[GLOBAL_ACC_W] = 1000000 {8:125000,}
traffic_breakdown_memtocore[INST_ACC_R] = 16320 {136:120,}
maxmrqlatency = 1187 
maxdqlatency = 0 
maxmflatency = 2306 
averagemflatency = 1041 
max_icnt2mem_latency = 1648 
max_icnt2sh_latency = 672572 
mrq_lat_table:116392 	3494 	5609 	13862 	42107 	70627 	97236 	72098 	15793 	289 	2 	0 	0 	0 	0 	0 	0 	0 	0 	0 	0 	0 	0 	0 	0 	0 	0 	0 	0 	0 	0 	0 	
dq_lat_table:0 	0 	0 	0 	0 	0 	0 	0 	0 	0 	0 	0 	0 	0 	0 	0 	0 	0 	0 	0 	0 	0 	0 	0 	0 	0 	0 	0 	0 	0 	0 	0 	
mf_lat_table:0 	0 	0 	0 	0 	0 	0 	70 	5736 	141713 	164961 	35 	0 	0 	0 	0 	0 	0 	0 	0 	0 	0 	0 	0 	0 	0 	0 	0 	0 	0 	0 	0 	
icnt2mem_lat_table:0 	0 	0 	4933 	1124 	1647 	15631 	31569 	134801 	120861 	2069 	0 	0 	0 	0 	0 	0 	0 	0 	0 	0 	0 	0 	0 	
icnt2sh_lat_table:0 	0 	0 	155569 	31673 	273 	0 	0 	0 	0 	0 	0 	709 	1616 	3190 	6272 	12501 	24791 	49296 	26625 	0 	0 	0 	0 	
mf_lat_pw_table:0 	0 	0 	0 	0 	0 	0 	1 	39 	226 	1078 	0 	0 	0 	0 	0 	0 	0 	0 	0 	0 	0 	0 	0 	0 	0 	0 	0 	0 	0 	0 	0 	
maximum concurrent accesses to same row:
dram[0]:        32        27        32        32        28        28        52        56        32        32        40        44        58        48        32        32 
dram[1]:        32        31        32        32        28        28        46        46        32        32        40        44        52        58        32        32 
dram[2]:        31        29        32        32        28        28        58        38        32        32        44        44        56        48        32        32 
maximum service time to same row:
dram[0]:      4323      2402      5676      5751      4407      4295      3534      3346      3942      4081      2205      2299      3111      3102      3637      3936 
dram[1]:      3222      4027      5298      5409      4300      4077      3514      3679      3802      4547      2278      2432      3125      3386      3565      4001 
dram[2]:      2771      4269      5468      4975      3809      4035      3132      3716      3814      4307      2298      2487      3157      3272      3697      3865 
average row accesses per activate:
dram[0]:  1.478310  1.481265  1.474367  1.482303  1.482787  1.483271  1.492037  1.491793  1.477003  1.482545  1.495168  1.489966  1.494204  1.493716  1.500820  1.497627 
dram[1]:  1.476714  1.481421  1.473172  1.482545  1.479648  1.487885  1.482303  1.494983  1.480371  1.479407  1.485677  1.491669  1.485714  1.500820  1.490554  1.501805 
dram[2]:  1.483190  1.474721  1.487154  1.482061  1.484967  1.479167  1.491303  1.488372  1.482061  1.477483  1.491426  1.485844  1.492985  1.481625  1.498118  1.495425 
average row locality = 437509/294344 = 1.486387
number of total memory accesses made:
dram[0]:         0         0         0         0         0         0         0         0         0         0         0         0         0         0         0         0 
dram[1]:         0         0         0         0         0         0         0         0         0         0         0         0         0         0         0         0 
dram[2]:         0         0         0         0         0         0         0         0         0         0         0         0         0         0         0         0 
total accesses: 0
min_bank_accesses = 0!
min_chip_accesses = 0!
number of total read accesses:
dram[0]:      6529      6528      6496      6496      6496      6496      6496      6496      6496      6496      6516      6518      6528      6528      6528      6528 
dram[1]:      6528      6526      6496      6496      6496      6496      6496      6496      6496      6496      6516      6518      6528      6528      6528      6528 
dram[2]:      6528      6526      6496      6496      6496      6496      6496      6496      6496      6496      6518      6518      6528      6528      6528      6528 
total reads: 312509
bank skew: 6529/6496 = 1.01
chip skew: 104171/104168 = 1.00
number of total write accesses:
dram[0]:      2604      2604      2592      2592      2592      2592      2592      2592      2592      2592      2612      2614      2624      2624      2624      2624 
dram[1]:      2604      2604      2592      2592      2592      2592      2592      2592      2592      2592      2612      2614      2624      2624      2624      2624 
dram[2]:      2604      2604      2592      2592      2592      2592      2592      2592      2592      2592      2614      2614      2624      2624      2624      2624 
total reads: 125000
bank skew: 2624/2592 = 1.01
chip skew: 41668/41666 = 1.00
average mf latency per bank:
dram[0]:        739       726       741       736       747       739       758       761       739       729       738       729       748       740       756       754
dram[1]:        716       728       721       737       730       742       737       760       715       728       719       732       724       745       736       755
dram[2]:        737       757       740       759       746       767       762       778       737       756       741       754       745       765       755       778
maximum mf latency per bank:
dram[0]:       1944      1953      1998      2070      2081      2064      2067      2306      1992      2052      1954      1940      2010      2031      2037      2029
dram[1]:       2027      2008      2002      2030      1907      1971      2049      2259      1984      2020      1845      2053      1934      1925      2117      2010
dram[2]:       1947      2063      2082      2072      2175      2012      2305      2130      1979      2012      2117      2134      2024      2152      2154      2274

Number of Memory Banks Accessed per Memory Operation per Warp (from 0):
0	0	0	0	0	0	0	0	0	0	0	0	0	0	0	0	0	0	0	0	0	0	0	0	0	0	0	0	0	0	0	0	0	0	0	0	0	0	0	0	0	0	0	0	0	0	0	0	
Average # of Memory Banks Accessed per Memory Operation per Warp=-nan

position of mrq chosen
0	0	0	0	0	0	0	0	0	0	0	0	0	0	0	0	

average position of mrq chosen = -nan
Memory Partition 0: 
Cache L2_bank_000:
MSHR contents

Cache L2_bank_001:
MSHR contents
MSHR: tag=0x80f21180, atomic=0 1 entries : 0x7f752cce5760 :  mf: uid=12759902, sid03:w31, part=0, addr=0x80f21180, load , size=128, unknown  status = IN_PARTITION_DRAM (672570), 

In Dram Latency Queue (total = 0): 
DRAM[0]: 16 bks, busW=4 BL=8 CL=12, tRRD=2 tCCD=6, tRCD=12 tRAS=28 tRP=12 tRC=40
n_cmd=887796 n_nop=400026 n_act=98056 n_pre=98040 n_req=145837 n_rd=208342 n_write=83332 bw_util=0.6571
n_activity=879729 dram_eff=0.6631
bk0: 13058a 378127i bk1: 13056a 370922i bk2: 12992a 355723i bk3: 12992a 347074i bk4: 12992a 336395i bk5: 12992a 326903i bk6: 12992a 304543i bk7: 12992a 282476i bk8: 12992a 387124i bk9: 12992a 377226i bk10: 13032a 364658i bk11: 13036a 347408i bk12: 13056a 328771i bk13: 13056a 317301i bk14: 13056a 297387i bk15: 13056a 276430i 
dram_util_bins: 0 0 0 0 0 0 0 0 0 0
dram_eff_bins: 0 0 0 0 0 0 0 0 0 0
mrqq: max=16 avg=15.3895
Memory Partition 1: 
Cache L2_bank_002:
MSHR contents

Cache L2_bank_003:
MSHR contents

In Dram Latency Queue (total = 0): 
DRAM[1]: 16 bks, busW=4 BL=8 CL=12, tRRD=2 tCCD=6, tRCD=12 tRAS=28 tRP=12 tRC=40
n_cmd=887796 n_nop=399852 n_act=98146 n_pre=98130 n_req=145834 n_rd=208336 n_write=83332 bw_util=0.6571
n_activity=879502 dram_eff=0.6633
bk0: 13056a 390686i bk1: 13052a 371795i bk2: 12992a 364732i bk3: 12992a 342670i bk4: 12992a 336373i bk5: 12992a 318278i bk6: 12992a 303225i bk7: 12992a 281062i bk8: 12992a 388802i bk9: 12992a 373309i bk10: 13032a 360728i bk11: 13036a 345041i bk12: 13056a 334178i bk13: 13056a 322753i bk14: 13056a 303295i bk15: 13056a 275045i 
dram_util_bins: 0 0 0 0 0 0 0 0 0 0
dram_eff_bins: 0 0 0 0 0 0 0 0 0 0
mrqq: max=16 avg=15.3677
Memory Partition 2: 
Cache L2_bank_004:
MSHR contents

Cache L2_bank_005:
MSHR contents

In Dram Latency Queue (total = 0): 
DRAM[2]: 16 bks, busW=4 BL=8 CL=12, tRRD=2 tCCD=6, tRCD=12 tRAS=28 tRP=12 tRC=40
n_cmd=887796 n_nop=399850 n_act=98143 n_pre=98127 n_req=145838 n_rd=208340 n_write=83336 bw_util=0.6571
n_activity=878843 dram_eff=0.6638
bk0: 13056a 387242i bk1: 13052a 372794i bk2: 12992a 362548i bk3: 12992a 345145i bk4: 12992a 335330i bk5: 12992a 316641i bk6: 12992a 298027i bk7: 12992a 283431i bk8: 12992a 384770i bk9: 12992a 376337i bk10: 13036a 358717i bk11: 13036a 350515i bk12: 13056a 330753i bk13: 13056a 318017i bk14: 13056a 300666i bk15: 13056a 278487i 
dram_util_bins: 0 0 0 0 0 0 0 0 0 0
dram_eff_bins: 0 0 0 0 0 0 0 0 0 0
mrqq: max=16 avg=15.4389

========= L2 cache stats =========
L2_cache_bank[0]: Access = 52127, Miss = 52085, Miss_rate = 0.999, Pending_hits = 9, Reservation_fails = 60210
L2_cache_bank[1]: Access = 52114, Miss = 52086, Miss_rate = 0.999, Pending_hits = 6, Reservation_fails = 70299
L2_cache_bank[2]: Access = 52112, Miss = 52084, Miss_rate = 0.999, Pending_hits = 6, Reservation_fails = 72973
L2_cache_bank[3]: Access = 52084, Miss = 52084, Miss_rate = 1.000, Pending_hits = 0, Reservation_fails = 101421
L2_cache_bank[4]: Access = 52114, Miss = 52086, Miss_rate = 0.999, Pending_hits = 6, Reservation_fails = 66234
L2_cache_bank[5]: Access = 52084, Miss = 52084, Miss_rate = 1.000, Pending_hits = 0, Reservation_fails = 78682
L2_total_cache_accesses = 312635
L2_total_cache_misses = 312509
L2_total_cache_miss_rate = 0.9996
L2_total_cache_pending_hits = 27
L2_total_cache_reservation_fails = 449819
L2_total_cache_breakdown:
	L2_cache_stats_breakdown[GLOBAL_ACC_R][MISS] = 187500
	L2_cache_stats_breakdown[GLOBAL_ACC_R][RESERVATION_FAIL] = 265010
	L2_cache_stats_breakdown[CONST_ACC_R][HIT] = 11
	L2_cache_stats_breakdown[CONST_ACC_R][HIT_RESERVED] = 3
	L2_cache_stats_breakdown[CONST_ACC_R][MISS] = 1
	L2_cache_stats_breakdown[CONST_ACC_R][RESERVATION_FAIL] = 91
	L2_cache_stats_breakdown[GLOBAL_ACC_W][MISS] = 125000
	L2_cache_stats_breakdown[GLOBAL_ACC_W][RESERVATION_FAIL] = 184085
	L2_cache_stats_breakdown[INST_ACC_R][HIT] = 88
	L2_cache_stats_breakdown[INST_ACC_R][HIT_RESERVED] = 24
	L2_cache_stats_breakdown[INST_ACC_R][MISS] = 8
	L2_cache_stats_breakdown[INST_ACC_R][RESERVATION_FAIL] = 633
L2_cache_data_port_util = 0.000
L2_cache_fill_port_util = 0.310

icnt_total_pkts_mem_to_simt=1063145
icnt_total_pkts_simt_to_mem=812635
LD_mem_lat_dist  0 0 0 0 0 0 0 0 0 0 0 0 0 0 0 0 0 0 0 0 0 0 0 0 0 0 0
ST_mem_lat_dist  0 0 0 0 0 0 0 0 0 0 0 0 0 0 0 0 0 0 0 0 0 0 0 0 0 0 0
----------------------------Interconnect-DETAILS--------------------------------
Class 0:
Packet latency average = 110.514
	minimum = 6
	maximum = 1096
Network latency average = 69.3498
	minimum = 6
	maximum = 945
Slowest packet = 18159
Flit latency average = 49.7954
	minimum = 6
	maximum = 945
Slowest flit = 54289
Fragmentation average = 1.0066
	minimum = 0
	maximum = 486
Injected packet rate average = 0.0344322
	minimum = 0 (at node 21)
	maximum = 0.0775039 (at node 15)
Accepted packet rate average = 0.0344322
	minimum = 0 (at node 21)
	maximum = 0.0775039 (at node 15)
Injected flit rate average = 0.103295
	minimum = 0 (at node 21)
	maximum = 0.26358 (at node 15)
Accepted flit rate average= 0.103295
	minimum = 0 (at node 21)
	maximum = 0.201398 (at node 15)
Injected packet length average = 2.99995
Accepted packet length average = 2.99995
Total in-flight flits = 0 (0 measured)
====== Overall Traffic Statistics ======
====== Traffic class 0 ======
Packet latency average = 110.514 (1 samples)
	minimum = 6 (1 samples)
	maximum = 1096 (1 samples)
Network latency average = 69.3498 (1 samples)
	minimum = 6 (1 samples)
	maximum = 945 (1 samples)
Flit latency average = 49.7954 (1 samples)
	minimum = 6 (1 samples)
	maximum = 945 (1 samples)
Fragmentation average = 1.0066 (1 samples)
	minimum = 0 (1 samples)
	maximum = 486 (1 samples)
Injected packet rate average = 0.0344322 (1 samples)
	minimum = 0 (1 samples)
	maximum = 0.0775039 (1 samples)
Accepted packet rate average = 0.0344322 (1 samples)
	minimum = 0 (1 samples)
	maximum = 0.0775039 (1 samples)
Injected flit rate average = 0.103295 (1 samples)
	minimum = 0 (1 samples)
	maximum = 0.26358 (1 samples)
Accepted flit rate average = 0.103295 (1 samples)
	minimum = 0 (1 samples)
	maximum = 0.201398 (1 samples)
Injected packet size average = 2.99995 (1 samples)
Accepted packet size average = 2.99995 (1 samples)
Hops average = 1 (1 samples)
----------------------------END-of-Interconnect-DETAILS-------------------------


gpgpu_simulation_time = 0 days, 0 hrs, 7 min, 27 sec (447 sec)
gpgpu_simulation_rate = 437990 (inst/sec)
gpgpu_simulation_rate = 1504 (cycle/sec)
GPGPU-Sim: synchronize waiting for inactive GPU simulation
GPGPU-Sim API: Stream Manager State
GPGPU-Sim: detected inactive GPU simulation thread
Options count             : 4000000     
BlackScholesGPU() time    : 445171.843750 msec
Effective memory bandwidth: 0.000090 GB/s
Gigaoptions per second    : 0.000009     
Reading back GPU results...
Checking the results...
...running CPU calculations.
Comparing the results...
L1 norm: 1.729535E-07
Max absolute error: 1.192093E-05
TEST PASSED
Shutting down...
...releasing GPU memory.
...releasing CPU memory.
Shutdown done.
GPGPU-Sim: exit_simulation called
GPGPU-Sim: simulation thread signaled exit

Press ENTER to exit...
