

        *** GPGPU-Sim Simulator Version 3.2.2  [build 0] ***


GPGPU-Sim PTX: simulation mode 0 (can change with PTX_SIM_MODE_FUNC environment variable:
               1=functional simulation only, 0=detailed performance simulator)
GPGPU-Sim: Configuration options:

-network_mode                           1 # Interconnection network mode
-inter_config_file   config_fermi_islip.icnt # Interconnection network config file
-gpgpu_ptx_use_cuobjdump                    1 # Use cuobjdump to extract ptx and sass from binaries
-gpgpu_experimental_lib_support                    0 # Try to extract code from cuda libraries [Broken because of unknown cudaGetExportTable]
-gpgpu_ptx_convert_to_ptxplus                    0 # Convert SASS (native ISA) to ptxplus and run ptxplus
-gpgpu_ptx_force_max_capability                   20 # Force maximum compute capability
-gpgpu_ptx_inst_debug_to_file                    0 # Dump executed instructions' debug information to file
-gpgpu_ptx_inst_debug_file       inst_debug.txt # Executed instructions' debug output file
-gpgpu_ptx_inst_debug_thread_uid                    1 # Thread UID for executed instructions' debug output
-gpgpu_simd_model                       1 # 1 = post-dominator
-gpgpu_shader_core_pipeline              1536:32 # shader core pipeline config, i.e., {<nthread>:<warpsize>}
-gpgpu_tex_cache:l1  4:128:24,L:R:m:N:L,F:128:4,128:2 # per-shader L1 texture cache  (READ-ONLY) config  {<nsets>:<bsize>:<assoc>,<rep>:<wr>:<alloc>:<wr_alloc>,<mshr>:<N>:<merge>,<mq>:<rf>}
-gpgpu_const_cache:l1 64:64:2,L:R:f:N:L,A:2:32,4 # per-shader L1 constant memory cache  (READ-ONLY) config  {<nsets>:<bsize>:<assoc>,<rep>:<wr>:<alloc>:<wr_alloc>,<mshr>:<N>:<merge>,<mq>} 
-gpgpu_cache:il1     4:128:4,L:R:f:N:L,A:2:32,4 # shader L1 instruction cache config  {<nsets>:<bsize>:<assoc>,<rep>:<wr>:<alloc>:<wr_alloc>,<mshr>:<N>:<merge>,<mq>} 
-gpgpu_cache:dl1     32:128:4,L:L:m:N:H,A:32:8,8 # per-shader L1 data cache config  {<nsets>:<bsize>:<assoc>,<rep>:<wr>:<alloc>:<wr_alloc>,<mshr>:<N>:<merge>,<mq> | none}
-gpgpu_cache:dl1PrefL1                 none # per-shader L1 data cache config  {<nsets>:<bsize>:<assoc>,<rep>:<wr>:<alloc>:<wr_alloc>,<mshr>:<N>:<merge>,<mq> | none}
-gpgpu_cache:dl1PreShared                 none # per-shader L1 data cache config  {<nsets>:<bsize>:<assoc>,<rep>:<wr>:<alloc>:<wr_alloc>,<mshr>:<N>:<merge>,<mq> | none}
-gmem_skip_L1D                          0 # global memory access skip L1D cache (implements -Xptxas -dlcm=cg, default=no skip)
-gpgpu_perfect_mem                      0 # enable perfect memory mode (no cache miss)
-n_regfile_gating_group                    4 # group of lanes that should be read/written together)
-gpgpu_clock_gated_reg_file                    0 # enable clock gated reg file for power calculations
-gpgpu_clock_gated_lanes                    0 # enable clock gated lanes for power calculations
-gpgpu_shader_registers                32768 # Number of registers per shader core. Limits number of concurrent CTAs. (default 8192)
-gpgpu_shader_cta                       8 # Maximum number of concurrent CTAs in shader (default 8)
-gpgpu_num_cta_barriers                   16 # Maximum number of named barriers per CTA (default 16)
-gpgpu_n_clusters                      15 # number of processing clusters
-gpgpu_n_cores_per_cluster                    1 # number of simd cores per cluster
-gpgpu_n_cluster_ejection_buffer_size                    8 # number of packets in ejection buffer
-gpgpu_n_ldst_response_buffer_size                    2 # number of response packets in ld/st unit ejection buffer
-gpgpu_shmem_size                   16384 # Size of shared memory per shader core (default 16kB)
-gpgpu_shmem_size                   49152 # Size of shared memory per shader core (default 16kB)
-gpgpu_shmem_size_PrefL1                16384 # Size of shared memory per shader core (default 16kB)
-gpgpu_shmem_size_PrefShared                16384 # Size of shared memory per shader core (default 16kB)
-gpgpu_shmem_num_banks                   32 # Number of banks in the shared memory in each shader core (default 16)
-gpgpu_shmem_limited_broadcast                    0 # Limit shared memory to do one broadcast per cycle (default on)
-gpgpu_shmem_warp_parts                    1 # Number of portions a warp is divided into for shared memory bank conflict check 
-gpgpu_warpdistro_shader                   -1 # Specify which shader core to collect the warp size distribution from
-gpgpu_warp_issue_shader                    0 # Specify which shader core to collect the warp issue distribution from
-gpgpu_local_mem_map                    1 # Mapping from local memory space address to simulated GPU physical address space (default = enabled)
-gpgpu_num_reg_banks                   16 # Number of register banks (default = 8)
-gpgpu_reg_bank_use_warp_id                    0 # Use warp ID in mapping registers to banks (default = off)
-gpgpu_operand_collector_num_units_sp                    6 # number of collector units (default = 4)
-gpgpu_operand_collector_num_units_sfu                    8 # number of collector units (default = 4)
-gpgpu_operand_collector_num_units_mem                    2 # number of collector units (default = 2)
-gpgpu_operand_collector_num_units_gen                    0 # number of collector units (default = 0)
-gpgpu_operand_collector_num_in_ports_sp                    2 # number of collector unit in ports (default = 1)
-gpgpu_operand_collector_num_in_ports_sfu                    1 # number of collector unit in ports (default = 1)
-gpgpu_operand_collector_num_in_ports_mem                    1 # number of collector unit in ports (default = 1)
-gpgpu_operand_collector_num_in_ports_gen                    0 # number of collector unit in ports (default = 0)
-gpgpu_operand_collector_num_out_ports_sp                    2 # number of collector unit in ports (default = 1)
-gpgpu_operand_collector_num_out_ports_sfu                    1 # number of collector unit in ports (default = 1)
-gpgpu_operand_collector_num_out_ports_mem                    1 # number of collector unit in ports (default = 1)
-gpgpu_operand_collector_num_out_ports_gen                    0 # number of collector unit in ports (default = 0)
-gpgpu_coalesce_arch                   13 # Coalescing arch (default = 13, anything else is off for now)
-gpgpu_num_sched_per_core                    2 # Number of warp schedulers per core
-gpgpu_max_insn_issue_per_warp                    1 # Max number of instructions that can be issued per warp in one cycle by scheduler
-gpgpu_simt_core_sim_order                    1 # Select the simulation order of cores in a cluster (0=Fix, 1=Round-Robin)
-gpgpu_pipeline_widths        2,1,1,2,1,1,2 # Pipeline widths ID_OC_SP,ID_OC_SFU,ID_OC_MEM,OC_EX_SP,OC_EX_SFU,OC_EX_MEM,EX_WB
-gpgpu_num_sp_units                     2 # Number of SP units (default=1)
-gpgpu_num_sfu_units                    1 # Number of SF units (default=1)
-gpgpu_num_mem_units                    1 # Number if ldst units (default=1) WARNING: not hooked up to anything
-gpgpu_scheduler                      gto # Scheduler configuration: < lrr | gto | two_level_active > If two_level_active:<num_active_warps>:<inner_prioritization>:<outer_prioritization>For complete list of prioritization values see shader.h enum scheduler_prioritization_typeDefault: gto
-gpgpu_dram_scheduler                    1 # 0 = fifo, 1 = FR-FCFS (defaul)
-gpgpu_dram_partition_queues              8:8:8:8 # i2$:$2d:d2$:$2i
-l2_ideal                               0 # Use a ideal L2 cache that always hit
-gpgpu_cache:dl2     64:128:32,L:B:m:W:L,A:32:4,4:0,32 # unified banked L2 data cache config  {<nsets>:<bsize>:<assoc>,<rep>:<wr>:<alloc>:<wr_alloc>,<mshr>:<N>:<merge>,<mq>}
-gpgpu_cache:dl2_texture_only                    0 # L2 cache used for texture only
-gpgpu_n_mem                            6 # number of memory modules (e.g. memory controllers) in gpu
-gpgpu_n_sub_partition_per_mchannel                    2 # number of memory subpartition in each memory module
-gpgpu_n_mem_per_ctrlr                    2 # number of memory chips per memory controller
-gpgpu_memlatency_stat                   14 # track and display latency statistics 0x2 enables MC, 0x4 enables queue logs
-gpgpu_frfcfs_dram_sched_queue_size                   16 # 0 = unlimited (default); # entries per chip
-gpgpu_dram_return_queue_size                  116 # 0 = unlimited (default); # entries per chip
-gpgpu_dram_buswidth                    4 # default = 4 bytes (8 bytes per cycle at DDR)
-gpgpu_dram_burst_length                    8 # Burst length of each DRAM request (default = 4 data bus cycle)
-dram_data_command_freq_ratio                    4 # Frequency ratio between DRAM data bus and command bus (default = 2 times, i.e. DDR)
-gpgpu_dram_timing_opt nbk=16:CCD=2:RRD=6:RCD=12:RAS=28:RP=12:RC=40: CL=12:WL=4:CDLR=5:WR=12:nbkgrp=4:CCDL=3:RTPL=2 # DRAM timing parameters = {nbk:tCCD:tRRD:tRCD:tRAS:tRP:tRC:CL:WL:tCDLR:tWR:nbkgrp:tCCDL:tRTPL}
-rop_latency                          120 # ROP queue latency (default 85)
-dram_latency                         100 # DRAM latency (default 30)
-gpgpu_mem_addr_mapping dramid@8;00000000.00000000.00000000.00000000.0000RRRR.RRRRRRRR.BBBCCCCB.CCSSSSSS # mapping memory address to dram model {dramid@<start bit>;<memory address map>}
-gpgpu_mem_addr_test                    0 # run sweep test to check address mapping for aliased address
-gpgpu_mem_address_mask                    1 # 0 = old addressing mask, 1 = new addressing mask, 2 = new add. mask + flipped bank sel and chip sel bits
-gpuwattch_xml_file  gpuwattch_gtx480.xml # GPUWattch XML file
-power_simulation_enabled                    0 # Turn on power simulator (1=On, 0=Off)
-power_per_cycle_dump                    0 # Dump detailed power output each cycle
-power_trace_enabled                    0 # produce a file for the power trace (1=On, 0=Off)
-power_trace_zlevel                     6 # Compression level of the power trace output log (0=no comp, 9=highest)
-steady_power_levels_enabled                    0 # produce a file for the steady power levels (1=On, 0=Off)
-steady_state_definition                  8:4 # allowed deviation:number of samples
-gpgpu_max_cycle                        0 # terminates gpu simulation early (0 = no limit)
-gpgpu_max_insn                         0 # terminates gpu simulation early (0 = no limit)
-gpgpu_max_cta                          0 # terminates gpu simulation early (0 = no limit)
-gpgpu_runtime_stat                   500 # display runtime statistics such as dram utilization {<freq>:<flag>}
-liveness_message_freq                    1 # Minimum number of seconds between simulation liveness messages (0 = always print)
-gpgpu_flush_l1_cache                    0 # Flush L1 cache at the end of each kernel call
-gpgpu_flush_l2_cache                    0 # Flush L2 cache at the end of each kernel call
-gpgpu_deadlock_detect                    1 # Stop the simulation at deadlock (1=on (default), 0=off)
-gpgpu_ptx_instruction_classification                    0 # if enabled will classify ptx instruction types per kernel (Max 255 kernels now)
-gpgpu_ptx_sim_mode                     0 # Select between Performance (default) or Functional simulation (1)
-gpgpu_clock_domains 700.0:700.0:700.0:924.0 # Clock Domain Frequencies in MhZ {<Core Clock>:<ICNT Clock>:<L2 Clock>:<DRAM Clock>}
-gpgpu_max_concurrent_kernel                    8 # maximum kernels that can run concurrently on GPU
-gpgpu_cflog_interval                    0 # Interval between each snapshot in control flow logger
-visualizer_enabled                     0 # Turn on visualizer output (1=On, 0=Off)
-visualizer_outputfile                 NULL # Specifies the output log file for visualizer
-visualizer_zlevel                      6 # Compression level of the visualizer output log (0=no comp, 9=highest)
-trace_enabled                          0 # Turn on traces
-trace_components                    none # comma seperated list of traces to enable. Complete list found in trace_streams.tup. Default none
-trace_sampling_core                    0 # The core which is printed using CORE_DPRINTF. Default 0
-trace_sampling_memory_partition                   -1 # The memory partition which is printed using MEMPART_DPRINTF. Default -1 (i.e. all)
-enable_ptx_file_line_stats                    1 # Turn on PTX source line statistic profiling. (1 = On)
-ptx_line_stats_filename gpgpu_inst_stats.txt # Output file for PTX source line statistics.
-save_embedded_ptx                      0 # saves ptx files embedded in binary as <n>.ptx
-keep                                   0 # keep intermediate files created by GPGPU-Sim when interfacing with external programs
-gpgpu_ptx_save_converted_ptxplus                    0 # Saved converted ptxplus to a file
-ptx_opcode_latency_int         4,13,4,5,145 # Opcode latencies for integers <ADD,MAX,MUL,MAD,DIV>Default 1,1,19,25,145
-ptx_opcode_latency_fp          4,13,4,5,39 # Opcode latencies for single precision floating points <ADD,MAX,MUL,MAD,DIV>Default 1,1,1,1,30
-ptx_opcode_latency_dp         8,19,8,8,330 # Opcode latencies for double precision floating points <ADD,MAX,MUL,MAD,DIV>Default 8,8,8,8,335
-ptx_opcode_initiation_int            1,2,2,1,8 # Opcode initiation intervals for integers <ADD,MAX,MUL,MAD,DIV>Default 1,1,4,4,32
-ptx_opcode_initiation_fp            1,2,1,1,4 # Opcode initiation intervals for single precision floating points <ADD,MAX,MUL,MAD,DIV>Default 1,1,1,1,5
-ptx_opcode_initiation_dp         8,16,8,8,130 # Opcode initiation intervals for double precision floating points <ADD,MAX,MUL,MAD,DIV>Default 8,8,8,8,130
DRAM Timing Options:
nbk                                    16 # number of banks
CCD                                     2 # column to column delay
RRD                                     6 # minimal delay between activation of rows in different banks
RCD                                    12 # row to column delay
RAS                                    28 # time needed to activate row
RP                                     12 # time needed to precharge (deactivate) row
RC                                     40 # row cycle time
CDLR                                    5 # switching from write to read (changes tWTR)
WR                                     12 # last data-in to row precharge
CL                                     12 # CAS latency
WL                                      4 # Write latency
nbkgrp                                  4 # number of bank groups
CCDL                                    3 # column to column delay between accesses to different bank groups
RTPL                                    2 # read to precharge delay between accesses to different bank groups
Total number of memory sub partition = 12
addr_dec_mask[CHIP]  = 0000000000000000 	high:64 low:0
addr_dec_mask[BK]    = 000000000000e100 	high:16 low:8
addr_dec_mask[ROW]   = 000000000fff0000 	high:28 low:16
addr_dec_mask[COL]   = 0000000000001eff 	high:13 low:0
addr_dec_mask[BURST] = 000000000000003f 	high:6 low:0
sub_partition_id_mask = 0000000000000100
GPGPU-Sim uArch: clock freqs: 700000000.000000:700000000.000000:700000000.000000:924000000.000000
GPGPU-Sim uArch: clock periods: 0.00000000142857142857:0.00000000142857142857:0.00000000142857142857:0.00000000108225108225
*** Initializing Memory Statistics ***
GPGPU-Sim uArch: interconnect node map (shaderID+MemID to icntID)
GPGPU-Sim uArch: Memory nodes ID start from index: 15
GPGPU-Sim uArch:    0   1   2   3   4
GPGPU-Sim uArch:    5   6   7   8   9
GPGPU-Sim uArch:   10  11  12  13  14
GPGPU-Sim uArch:   15  16  17  18  19
GPGPU-Sim uArch:   20  21  22  23  24
GPGPU-Sim uArch:   25  26
GPGPU-Sim uArch: interconnect node reverse map (icntID to shaderID+MemID)
GPGPU-Sim uArch: Memory nodes start from ID: 15
GPGPU-Sim uArch:    0   1   2   3   4
GPGPU-Sim uArch:    5   6   7   8   9
GPGPU-Sim uArch:   10  11  12  13  14
GPGPU-Sim uArch:   15  16  17  18  19
GPGPU-Sim uArch:   20  21  22  23  24
GPGPU-Sim uArch:   25  26
316bcbff5f8f022bb22b20bb4721e93e  /sciclone/data20/adwait/applications/benchmarks/CUDA/RAY/gpgpu_ptx_sim__RAY
GPGPU-Sim uArch: performance model initialization complete.
GPGPU-Sim PTX: __cudaRegisterFatBinary, fat_cubin_handle = 1, filename=rayTracing.cu
self exe links to: /sciclone/data20/adwait/applications/benchmarks/CUDA/RAY/gpgpu_ptx_sim__RAY
Running md5sum using "md5sum /sciclone/data20/adwait/applications/benchmarks/CUDA/RAY/gpgpu_ptx_sim__RAY "
Parsing file _cuobjdump_complete_output_LZWXCD
######### cuobjdump parser ########
## Adding new section ELF
Adding arch: sm_20
Adding identifier: rayTracing.cu
## Adding new section PTX
Adding ptx filename: _cuobjdump_1.ptx
Adding arch: sm_20
Adding identifier: rayTracing.cu
Done parsing!!!
GPGPU-Sim PTX: __cudaRegisterFunction _Z6renderPjP4Nodejjff : hostFun 0x0x40ce13, fat_cubin_handle = 1
GPGPU-Sim PTX: allocating stack frame region for .param "__cudaretf__Zmi6float3S_" from 0x0 to 0xc
GPGPU-Sim PTX: allocating stack frame region for .param "__cudaparmf1__Zmi6float3S_" from 0xc to 0x18
GPGPU-Sim PTX: allocating stack frame region for .param "__cudaparmf2__Zmi6float3S_" from 0x18 to 0x24
GPGPU-Sim PTX: allocating stack frame region for .param "__cudaretf__Z9normalize6float3" from 0x0 to 0xc
GPGPU-Sim PTX: allocating stack frame region for .param "__cudaparmf1__Z9normalize6float3" from 0xc to 0x18
GPGPU-Sim PTX: allocating stack frame region for .param "__cudaretf__Z18intersectionSphere5Rayon6float3f" from 0x0 to 0x4
GPGPU-Sim PTX: allocating stack frame region for .param "__cudaparmf1__Z18intersectionSphere5Rayon6float3f" from 0x4 to 0x1c
GPGPU-Sim PTX: allocating stack frame region for .param "__cudaparmf2__Z18intersectionSphere5Rayon6float3f" from 0x1c to 0x28
GPGPU-Sim PTX: allocating stack frame region for .param "__cudaparmf3__Z18intersectionSphere5Rayon6float3f" from 0x28 to 0x2c
GPGPU-Sim PTX: allocating stack frame region for .param "__cudaretf__Z16intersectionPlan5Rayon6float3S0_" from 0x0 to 0x4
GPGPU-Sim PTX: allocating stack frame region for .param "__cudaparmf1__Z16intersectionPlan5Rayon6float3S0_" from 0x4 to 0x1c
GPGPU-Sim PTX: allocating stack frame region for .param "__cudaparmf2__Z16intersectionPlan5Rayon6float3S0_" from 0x1c to 0x28
GPGPU-Sim PTX: allocating stack frame region for .param "__cudaparmf3__Z16intersectionPlan5Rayon6float3S0_" from 0x28 to 0x34
GPGPU-Sim PTX: allocating stack frame region for .param "__cudaretf__Z10getNormale6float3S_" from 0x0 to 0xc
GPGPU-Sim PTX: allocating stack frame region for .param "__cudaparmf1__Z10getNormale6float3S_" from 0xc to 0x18
GPGPU-Sim PTX: allocating stack frame region for .param "__cudaparmf2__Z10getNormale6float3S_" from 0x18 to 0x24
GPGPU-Sim PTX: allocating stack frame region for .param "__cudaretf__Z11getNormaleP6float3" from 0x0 to 0xc
GPGPU-Sim PTX: allocating stack frame region for .param "__cudaparmf1__Z11getNormaleP6float3" from 0xc to 0x18
GPGPU-Sim PTX: allocating stack frame region for .param "__cudaretf__Z14rgbaFloatToInt6float4" from 0x0 to 0x4
GPGPU-Sim PTX: allocating stack frame region for .param "__cudaparmf1__Z14rgbaFloatToInt6float4" from 0x4 to 0x14
GPGPU-Sim PTX: allocating stack frame region for .param "__cudaretf__Z12notShadowRayP4Node6float3S1_f" from 0x0 to 0x4
GPGPU-Sim PTX: allocating stack frame region for .param "__cudaparmf1__Z12notShadowRayP4Node6float3S1_f" from 0x4 to 0xc
GPGPU-Sim PTX: allocating stack frame region for .param "__cudaparmf2__Z12notShadowRayP4Node6float3S1_f" from 0xc to 0x18
GPGPU-Sim PTX: allocating stack frame region for .param "__cudaparmf3__Z12notShadowRayP4Node6float3S1_f" from 0x18 to 0x24
GPGPU-Sim PTX: allocating stack frame region for .param "__cudaparmf4__Z12notShadowRayP4Node6float3S1_f" from 0x24 to 0x28
GPGPU-Sim PTX: allocating stack frame region for .param "__cudaretf__Z15float2int_pow20f" from 0x0 to 0x4
GPGPU-Sim PTX: allocating stack frame region for .param "__cudaparmf1__Z15float2int_pow20f" from 0x4 to 0x8
GPGPU-Sim PTX: allocating stack frame region for .param "__cudaretf__Z15float2int_pow50f" from 0x0 to 0x4
GPGPU-Sim PTX: allocating stack frame region for .param "__cudaparmf1__Z15float2int_pow50f" from 0x4 to 0x8
GPGPU-Sim PTX: allocating stack frame region for .param "__cudaparmf1__ZN4dim3C1Ejjj" from 0x0 to 0x8
GPGPU-Sim PTX: allocating stack frame region for .param "__cudaparmf2__ZN4dim3C1Ejjj" from 0x8 to 0xc
GPGPU-Sim PTX: allocating stack frame region for .param "__cudaparmf3__ZN4dim3C1Ejjj" from 0xc to 0x10
GPGPU-Sim PTX: allocating stack frame region for .param "__cudaparmf4__ZN4dim3C1Ejjj" from 0x10 to 0x14
GPGPU-Sim PTX: instruction assembly for function '_Zmi6float3S_'...   done.
GPGPU-Sim PTX: finding reconvergence points for '_Zmi6float3S_'...
GPGPU-Sim PTX: Finding dominators for '_Zmi6float3S_'...
GPGPU-Sim PTX: Finding immediate dominators for '_Zmi6float3S_'...
GPGPU-Sim PTX: Finding postdominators for '_Zmi6float3S_'...
GPGPU-Sim PTX: Finding immediate postdominators for '_Zmi6float3S_'...
GPGPU-Sim PTX: pre-decoding instructions for '_Zmi6float3S_'...
GPGPU-Sim PTX: reconvergence points for _Zmi6float3S_...
GPGPU-Sim PTX: ... end of reconvergence points for _Zmi6float3S_
GPGPU-Sim PTX: ... done pre-decoding instructions for '_Zmi6float3S_'.
GPGPU-Sim PTX: instruction assembly for function '_Z9normalize6float3'...   done.
GPGPU-Sim PTX: finding reconvergence points for '_Z9normalize6float3'...
GPGPU-Sim PTX: Finding dominators for '_Z9normalize6float3'...
GPGPU-Sim PTX: Finding immediate dominators for '_Z9normalize6float3'...
GPGPU-Sim PTX: Finding postdominators for '_Z9normalize6float3'...
GPGPU-Sim PTX: Finding immediate postdominators for '_Z9normalize6float3'...
GPGPU-Sim PTX: pre-decoding instructions for '_Z9normalize6float3'...
GPGPU-Sim PTX: reconvergence points for _Z9normalize6float3...
GPGPU-Sim PTX: ... end of reconvergence points for _Z9normalize6float3
GPGPU-Sim PTX: ... done pre-decoding instructions for '_Z9normalize6float3'.
GPGPU-Sim PTX: instruction assembly for function '_Z18intersectionSphere5Rayon6float3f'...   done.
GPGPU-Sim PTX: finding reconvergence points for '_Z18intersectionSphere5Rayon6float3f'...
GPGPU-Sim PTX: Finding dominators for '_Z18intersectionSphere5Rayon6float3f'...
GPGPU-Sim PTX: Finding immediate dominators for '_Z18intersectionSphere5Rayon6float3f'...
GPGPU-Sim PTX: Finding postdominators for '_Z18intersectionSphere5Rayon6float3f'...
GPGPU-Sim PTX: Finding immediate postdominators for '_Z18intersectionSphere5Rayon6float3f'...
GPGPU-Sim PTX: pre-decoding instructions for '_Z18intersectionSphere5Rayon6float3f'...
GPGPU-Sim PTX: reconvergence points for _Z18intersectionSphere5Rayon6float3f...
GPGPU-Sim PTX:  1 (potential) branch divergence @  PC=0x250 (_1.ptx:173) @%p2 bra $Lt_2_3074;
GPGPU-Sim PTX:    immediate post dominator      @  PC=0x2c0 (_1.ptx:193) mov.f32 %f39, %f32;
GPGPU-Sim PTX:  2 (potential) branch divergence @  PC=0x260 (_1.ptx:175) bra.uni $Lt_2_2818;
GPGPU-Sim PTX:    immediate post dominator      @  PC=0x2c0 (_1.ptx:193) mov.f32 %f39, %f32;
GPGPU-Sim PTX:  3 (potential) branch divergence @  PC=0x280 (_1.ptx:180) @!%p3 bra $Lt_2_3586;
GPGPU-Sim PTX:    immediate post dominator      @  PC=0x2c0 (_1.ptx:193) mov.f32 %f39, %f32;
GPGPU-Sim PTX:  4 (potential) branch divergence @  PC=0x290 (_1.ptx:182) bra.uni $Lt_2_3330;
GPGPU-Sim PTX:    immediate post dominator      @  PC=0x2c0 (_1.ptx:193) mov.f32 %f39, %f32;
GPGPU-Sim PTX: ... end of reconvergence points for _Z18intersectionSphere5Rayon6float3f
GPGPU-Sim PTX: ... done pre-decoding instructions for '_Z18intersectionSphere5Rayon6float3f'.
GPGPU-Sim PTX: instruction assembly for function '_Z16intersectionPlan5Rayon6float3S0_'...   done.
GPGPU-Sim PTX: finding reconvergence points for '_Z16intersectionPlan5Rayon6float3S0_'...
GPGPU-Sim PTX: Finding dominators for '_Z16intersectionPlan5Rayon6float3S0_'...
GPGPU-Sim PTX: Finding immediate dominators for '_Z16intersectionPlan5Rayon6float3S0_'...
GPGPU-Sim PTX: Finding postdominators for '_Z16intersectionPlan5Rayon6float3S0_'...
GPGPU-Sim PTX: Finding immediate postdominators for '_Z16intersectionPlan5Rayon6float3S0_'...
GPGPU-Sim PTX: pre-decoding instructions for '_Z16intersectionPlan5Rayon6float3S0_'...
GPGPU-Sim PTX: reconvergence points for _Z16intersectionPlan5Rayon6float3S0_...
GPGPU-Sim PTX:  1 (potential) branch divergence @  PC=0x320 (_1.ptx:214) @!%p1 bra $Lt_3_2050;
GPGPU-Sim PTX:    immediate post dominator      @  PC=0x368 (_1.ptx:227) mov.f32 %f14, %f9;
GPGPU-Sim PTX:  2 (potential) branch divergence @  PC=0x330 (_1.ptx:216) bra.uni $Lt_3_1794;
GPGPU-Sim PTX:    immediate post dominator      @  PC=0x368 (_1.ptx:227) mov.f32 %f14, %f9;
GPGPU-Sim PTX: ... end of reconvergence points for _Z16intersectionPlan5Rayon6float3S0_
GPGPU-Sim PTX: ... done pre-decoding instructions for '_Z16intersectionPlan5Rayon6float3S0_'.
GPGPU-Sim PTX: instruction assembly for function '_Z10getNormale6float3S_'...   done.
GPGPU-Sim PTX: finding reconvergence points for '_Z10getNormale6float3S_'...
GPGPU-Sim PTX: Finding dominators for '_Z10getNormale6float3S_'...
GPGPU-Sim PTX: Finding immediate dominators for '_Z10getNormale6float3S_'...
GPGPU-Sim PTX: Finding postdominators for '_Z10getNormale6float3S_'...
GPGPU-Sim PTX: Finding immediate postdominators for '_Z10getNormale6float3S_'...
GPGPU-Sim PTX: pre-decoding instructions for '_Z10getNormale6float3S_'...
GPGPU-Sim PTX: reconvergence points for _Z10getNormale6float3S_...
GPGPU-Sim PTX: ... end of reconvergence points for _Z10getNormale6float3S_
GPGPU-Sim PTX: ... done pre-decoding instructions for '_Z10getNormale6float3S_'.
GPGPU-Sim PTX: instruction assembly for function '_Z11getNormaleP6float3'...   done.
GPGPU-Sim PTX: finding reconvergence points for '_Z11getNormaleP6float3'...
GPGPU-Sim PTX: Finding dominators for '_Z11getNormaleP6float3'...
GPGPU-Sim PTX: Finding immediate dominators for '_Z11getNormaleP6float3'...
GPGPU-Sim PTX: Finding postdominators for '_Z11getNormaleP6float3'...
GPGPU-Sim PTX: Finding immediate postdominators for '_Z11getNormaleP6float3'...
GPGPU-Sim PTX: pre-decoding instructions for '_Z11getNormaleP6float3'...
GPGPU-Sim PTX: reconvergence points for _Z11getNormaleP6float3...
GPGPU-Sim PTX: ... end of reconvergence points for _Z11getNormaleP6float3
GPGPU-Sim PTX: ... done pre-decoding instructions for '_Z11getNormaleP6float3'.
GPGPU-Sim PTX: instruction assembly for function '_Z14rgbaFloatToInt6float4'...   done.
GPGPU-Sim PTX: finding reconvergence points for '_Z14rgbaFloatToInt6float4'...
GPGPU-Sim PTX: Finding dominators for '_Z14rgbaFloatToInt6float4'...
GPGPU-Sim PTX: Finding immediate dominators for '_Z14rgbaFloatToInt6float4'...
GPGPU-Sim PTX: Finding postdominators for '_Z14rgbaFloatToInt6float4'...
GPGPU-Sim PTX: Finding immediate postdominators for '_Z14rgbaFloatToInt6float4'...
GPGPU-Sim PTX: pre-decoding instructions for '_Z14rgbaFloatToInt6float4'...
GPGPU-Sim PTX: reconvergence points for _Z14rgbaFloatToInt6float4...
GPGPU-Sim PTX: ... end of reconvergence points for _Z14rgbaFloatToInt6float4
GPGPU-Sim PTX: ... done pre-decoding instructions for '_Z14rgbaFloatToInt6float4'.
GPGPU-Sim PTX: allocating global region for "cnode" from 0x100 to 0x1a0 (global memory space)
GPGPU-Sim PTX: instruction assembly for function '_Z12notShadowRayP4Node6float3S1_f'...   done.
GPGPU-Sim PTX: finding reconvergence points for '_Z12notShadowRayP4Node6float3S1_f'...
GPGPU-Sim PTX: Finding dominators for '_Z12notShadowRayP4Node6float3S1_f'...
GPGPU-Sim PTX: Finding immediate dominators for '_Z12notShadowRayP4Node6float3S1_f'...
GPGPU-Sim PTX: Finding postdominators for '_Z12notShadowRayP4Node6float3S1_f'...
GPGPU-Sim PTX: Finding immediate postdominators for '_Z12notShadowRayP4Node6float3S1_f'...
GPGPU-Sim PTX: pre-decoding instructions for '_Z12notShadowRayP4Node6float3S1_f'...
GPGPU-Sim PTX: reconvergence points for _Z12notShadowRayP4Node6float3S1_f...
GPGPU-Sim PTX:  1 (potential) branch divergence @  PC=0x638 (_1.ptx:364) @%p1 bra $Lt_7_8450;
GPGPU-Sim PTX:    immediate post dominator      @  PC=0x828 (_1.ptx:441) mov.f32 %f58, 0f00000000;    // 0
GPGPU-Sim PTX:  2 (potential) branch divergence @  PC=0x658 (_1.ptx:369) @!%p2 bra $Lt_7_8962;
GPGPU-Sim PTX:    immediate post dominator      @  PC=0x6b8 (_1.ptx:385) mov.f32 %f28, %f20;
GPGPU-Sim PTX:  3 (potential) branch divergence @  PC=0x668 (_1.ptx:371) bra.uni $Lt_7_8706;
GPGPU-Sim PTX:    immediate post dominator      @  PC=0x6b8 (_1.ptx:385) mov.f32 %f28, %f20;
GPGPU-Sim PTX:  4 (potential) branch divergence @  PC=0x6c0 (_1.ptx:386) bra.uni $Lt_7_8194;
GPGPU-Sim PTX:    immediate post dominator      @  PC=0x828 (_1.ptx:441) mov.f32 %f58, 0f00000000;    // 0
GPGPU-Sim PTX:  5 (potential) branch divergence @  PC=0x7b0 (_1.ptx:418) @%p5 bra $Lt_7_9474;
GPGPU-Sim PTX:    immediate post dominator      @  PC=0x820 (_1.ptx:438) mov.f32 %f28, %f51;
GPGPU-Sim PTX:  6 (potential) branch divergence @  PC=0x7c0 (_1.ptx:420) bra.uni $Lt_7_9730;
GPGPU-Sim PTX:    immediate post dominator      @  PC=0x820 (_1.ptx:438) mov.f32 %f28, %f51;
GPGPU-Sim PTX:  7 (potential) branch divergence @  PC=0x7e0 (_1.ptx:425) @!%p6 bra $Lt_7_9986;
GPGPU-Sim PTX:    immediate post dominator      @  PC=0x820 (_1.ptx:438) mov.f32 %f28, %f51;
GPGPU-Sim PTX:  8 (potential) branch divergence @  PC=0x7f0 (_1.ptx:427) bra.uni $Lt_7_9730;
GPGPU-Sim PTX:    immediate post dominator      @  PC=0x820 (_1.ptx:438) mov.f32 %f28, %f51;
GPGPU-Sim PTX:  9 (potential) branch divergence @  PC=0x838 (_1.ptx:443) @!%p7 bra $Lt_7_10242;
GPGPU-Sim PTX:    immediate post dominator      @  PC=0x8e8 (_1.ptx:468) add.s32 %r1, %r1, 1;
GPGPU-Sim PTX: 10 (potential) branch divergence @  PC=0x8d8 (_1.ptx:463) @!%p8 bra $Lt_7_10242;
GPGPU-Sim PTX:    immediate post dominator      @  PC=0x8e8 (_1.ptx:468) add.s32 %r1, %r1, 1;
GPGPU-Sim PTX: 11 (potential) branch divergence @  PC=0x908 (_1.ptx:472) @%p9 bra $Lt_7_10754;
GPGPU-Sim PTX:    immediate post dominator      @  PC=0x960 (_1.ptx:486) selp.s32 %r10, 1, 0, %p11;
GPGPU-Sim PTX: 12 (potential) branch divergence @  PC=0x930 (_1.ptx:477) @%p10 bra $L_7_7170;
GPGPU-Sim PTX:    immediate post dominator      @  PC=0x960 (_1.ptx:486) selp.s32 %r10, 1, 0, %p11;
GPGPU-Sim PTX: 13 (potential) branch divergence @  PC=0x938 (_1.ptx:478) bra.uni $L_7_7938;
GPGPU-Sim PTX:    immediate post dominator      @  PC=0x960 (_1.ptx:486) selp.s32 %r10, 1, 0, %p11;
GPGPU-Sim PTX: ... end of reconvergence points for _Z12notShadowRayP4Node6float3S1_f
GPGPU-Sim PTX: ... done pre-decoding instructions for '_Z12notShadowRayP4Node6float3S1_f'.
GPGPU-Sim PTX: instruction assembly for function '_Z15float2int_pow20f'...   done.
GPGPU-Sim PTX: finding reconvergence points for '_Z15float2int_pow20f'...
GPGPU-Sim PTX: Finding dominators for '_Z15float2int_pow20f'...
GPGPU-Sim PTX: Finding immediate dominators for '_Z15float2int_pow20f'...
GPGPU-Sim PTX: Finding postdominators for '_Z15float2int_pow20f'...
GPGPU-Sim PTX: Finding immediate postdominators for '_Z15float2int_pow20f'...
GPGPU-Sim PTX: pre-decoding instructions for '_Z15float2int_pow20f'...
GPGPU-Sim PTX: reconvergence points for _Z15float2int_pow20f...
GPGPU-Sim PTX: ... end of reconvergence points for _Z15float2int_pow20f
GPGPU-Sim PTX: ... done pre-decoding instructions for '_Z15float2int_pow20f'.
GPGPU-Sim PTX: instruction assembly for function '_Z15float2int_pow50f'...   done.
GPGPU-Sim PTX: finding reconvergence points for '_Z15float2int_pow50f'...
GPGPU-Sim PTX: Finding dominators for '_Z15float2int_pow50f'...
GPGPU-Sim PTX: Finding immediate dominators for '_Z15float2int_pow50f'...
GPGPU-Sim PTX: Finding postdominators for '_Z15float2int_pow50f'...
GPGPU-Sim PTX: Finding immediate postdominators for '_Z15float2int_pow50f'...
GPGPU-Sim PTX: pre-decoding instructions for '_Z15float2int_pow50f'...
GPGPU-Sim PTX: reconvergence points for _Z15float2int_pow50f...
GPGPU-Sim PTX: ... end of reconvergence points for _Z15float2int_pow50f
GPGPU-Sim PTX: ... done pre-decoding instructions for '_Z15float2int_pow50f'.
GPGPU-Sim PTX: allocating constant region for "MView" from 0x200 to 0x230 (global memory space) 1
GPGPU-Sim PTX: allocating stack frame region for .local "__cuda___cuda_local_var_35463_9_non_const_pile_32240" from 0x0 to 0x50
GPGPU-Sim PTX: instruction assembly for function '_Z6renderPjP4Nodejjff'...   done.
GPGPU-Sim PTX: finding reconvergence points for '_Z6renderPjP4Nodejjff'...
GPGPU-Sim PTX: Finding dominators for '_Z6renderPjP4Nodejjff'...
GPGPU-Sim PTX: Finding immediate dominators for '_Z6renderPjP4Nodejjff'...
GPGPU-Sim PTX: Finding postdominators for '_Z6renderPjP4Nodejjff'...
GPGPU-Sim PTX: Finding immediate postdominators for '_Z6renderPjP4Nodejjff'...
GPGPU-Sim PTX: pre-decoding instructions for '_Z6renderPjP4Nodejjff'...
GPGPU-Sim PTX: reconvergence points for _Z6renderPjP4Nodejjff...
GPGPU-Sim PTX:  1 (potential) branch divergence @  PC=0xdb0 (_1.ptx:663) @%p1 bra $Lt_10_44034;
GPGPU-Sim PTX:    immediate post dominator      @  PC=0x2370 (_1.ptx:1495) exit;
GPGPU-Sim PTX:  2 (potential) branch divergence @  PC=0x1028 (_1.ptx:751) @%p2 bra $Lt_10_45570;
GPGPU-Sim PTX:    immediate post dominator      @  PC=0x11b8 (_1.ptx:815) mov.f32 %f108, 0f00000000;   // 0
GPGPU-Sim PTX:  3 (potential) branch divergence @  PC=0x1048 (_1.ptx:756) @!%p3 bra $Lt_10_46082;
GPGPU-Sim PTX:    immediate post dominator      @  PC=0x1090 (_1.ptx:769) mov.f32 %f87, %f82;
GPGPU-Sim PTX:  4 (potential) branch divergence @  PC=0x1058 (_1.ptx:758) bra.uni $Lt_10_45826;
GPGPU-Sim PTX:    immediate post dominator      @  PC=0x1090 (_1.ptx:769) mov.f32 %f87, %f82;
GPGPU-Sim PTX:  5 (potential) branch divergence @  PC=0x1098 (_1.ptx:770) bra.uni $Lt_10_45314;
GPGPU-Sim PTX:    immediate post dominator      @  PC=0x11b8 (_1.ptx:815) mov.f32 %f108, 0f00000000;   // 0
GPGPU-Sim PTX:  6 (potential) branch divergence @  PC=0x1140 (_1.ptx:793) @%p6 bra $Lt_10_46594;
GPGPU-Sim PTX:    immediate post dominator      @  PC=0x11b0 (_1.ptx:813) mov.f32 %f87, %f101;
GPGPU-Sim PTX:  7 (potential) branch divergence @  PC=0x1150 (_1.ptx:795) bra.uni $Lt_10_46850;
GPGPU-Sim PTX:    immediate post dominator      @  PC=0x11b0 (_1.ptx:813) mov.f32 %f87, %f101;
GPGPU-Sim PTX:  8 (potential) branch divergence @  PC=0x1170 (_1.ptx:800) @!%p7 bra $Lt_10_47106;
GPGPU-Sim PTX:    immediate post dominator      @  PC=0x11b0 (_1.ptx:813) mov.f32 %f87, %f101;
GPGPU-Sim PTX:  9 (potential) branch divergence @  PC=0x1180 (_1.ptx:802) bra.uni $Lt_10_46850;
GPGPU-Sim PTX:    immediate post dominator      @  PC=0x11b0 (_1.ptx:813) mov.f32 %f87, %f101;
GPGPU-Sim PTX: 10 (potential) branch divergence @  PC=0x11f8 (_1.ptx:823) @%p8 bra $Lt_10_47362;
GPGPU-Sim PTX:    immediate post dominator      @  PC=0x1210 (_1.ptx:829) add.s32 %r25, %r25, 1;
GPGPU-Sim PTX: 11 (potential) branch divergence @  PC=0x1230 (_1.ptx:833) @%p9 bra $Lt_10_45058;
GPGPU-Sim PTX:    immediate post dominator      @  PC=0x1238 (_1.ptx:834) mov.f32 %f109, 0f00000000;   // 0
GPGPU-Sim PTX: 12 (potential) branch divergence @  PC=0x1280 (_1.ptx:843) @%p10 bra $Lt_10_48130;
GPGPU-Sim PTX:    immediate post dominator      @  PC=0x2140 (_1.ptx:1416) add.s32 %r23, %r23, 1;
GPGPU-Sim PTX: 13 (potential) branch divergence @  PC=0x1330 (_1.ptx:868) @%p11 bra $Lt_10_48898;
GPGPU-Sim PTX:    immediate post dominator      @  PC=0x13b8 (_1.ptx:888) sub.f32 %f136, %f21, %f119;
GPGPU-Sim PTX: 14 (potential) branch divergence @  PC=0x1350 (_1.ptx:873) bra.uni $Lt_10_48642;
GPGPU-Sim PTX:    immediate post dominator      @  PC=0x13b8 (_1.ptx:888) sub.f32 %f136, %f21, %f119;
GPGPU-Sim PTX: 15 (potential) branch divergence @  PC=0x1430 (_1.ptx:903) @!%p12 bra $Lt_10_49410;
GPGPU-Sim PTX:    immediate post dominator      @  PC=0x1470 (_1.ptx:915) mov.f32 %f153, 0f3d4ccccd;   // 0.05
GPGPU-Sim PTX: 16 (potential) branch divergence @  PC=0x1450 (_1.ptx:908) bra.uni $Lt_10_49154;
GPGPU-Sim PTX:    immediate post dominator      @  PC=0x1470 (_1.ptx:915) mov.f32 %f153, 0f3d4ccccd;   // 0.05
GPGPU-Sim PTX: 17 (potential) branch divergence @  PC=0x1578 (_1.ptx:949) @!%p13 bra $Lt_10_58114;
GPGPU-Sim PTX:    immediate post dominator      @  PC=0x2080 (_1.ptx:1388) add.f32 %f399, %f126, %f126;
GPGPU-Sim PTX: 18 (potential) branch divergence @  PC=0x15c0 (_1.ptx:961) @%p14 bra $Lt_10_49922;
GPGPU-Sim PTX:    immediate post dominator      @  PC=0x17b0 (_1.ptx:1039) mov.f32 %f221, 0f00000000;   // 0
GPGPU-Sim PTX: 19 (potential) branch divergence @  PC=0x15e0 (_1.ptx:966) @!%p15 bra $Lt_10_50434;
GPGPU-Sim PTX:    immediate post dominator      @  PC=0x1638 (_1.ptx:982) mov.f32 %f190, %f183;
GPGPU-Sim PTX: 20 (potential) branch divergence @  PC=0x15f0 (_1.ptx:968) bra.uni $Lt_10_50178;
GPGPU-Sim PTX:    immediate post dominator      @  PC=0x1638 (_1.ptx:982) mov.f32 %f190, %f183;
GPGPU-Sim PTX: 21 (potential) branch divergence @  PC=0x1640 (_1.ptx:983) bra.uni $Lt_10_49666;
GPGPU-Sim PTX:    immediate post dominator      @  PC=0x17b0 (_1.ptx:1039) mov.f32 %f221, 0f00000000;   // 0
GPGPU-Sim PTX: 22 (potential) branch divergence @  PC=0x1738 (_1.ptx:1016) @%p18 bra $Lt_10_50946;
GPGPU-Sim PTX:    immediate post dominator      @  PC=0x17a8 (_1.ptx:1036) mov.f32 %f190, %f214;
GPGPU-Sim PTX: 23 (potential) branch divergence @  PC=0x1748 (_1.ptx:1018) bra.uni $Lt_10_51202;
GPGPU-Sim PTX:    immediate post dominator      @  PC=0x17a8 (_1.ptx:1036) mov.f32 %f190, %f214;
GPGPU-Sim PTX: 24 (potential) branch divergence @  PC=0x1768 (_1.ptx:1023) @!%p19 bra $Lt_10_51458;
GPGPU-Sim PTX:    immediate post dominator      @  PC=0x17a8 (_1.ptx:1036) mov.f32 %f190, %f214;
GPGPU-Sim PTX: 25 (potential) branch divergence @  PC=0x1778 (_1.ptx:1025) bra.uni $Lt_10_51202;
GPGPU-Sim PTX:    immediate post dominator      @  PC=0x17a8 (_1.ptx:1036) mov.f32 %f190, %f214;
GPGPU-Sim PTX: 26 (potential) branch divergence @  PC=0x17c0 (_1.ptx:1041) @!%p20 bra $Lt_10_58370;
GPGPU-Sim PTX:    immediate post dominator      @  PC=0x1828 (_1.ptx:1057) add.s32 %r50, %r50, 1;
GPGPU-Sim PTX: 27 (potential) branch divergence @  PC=0x1818 (_1.ptx:1052) @!%p21 bra $Lt_10_58370;
GPGPU-Sim PTX:    immediate post dominator      @  PC=0x1828 (_1.ptx:1057) add.s32 %r50, %r50, 1;
GPGPU-Sim PTX: 28 (potential) branch divergence @  PC=0x1848 (_1.ptx:1061) @%p22 bra $Lt_10_58882;
GPGPU-Sim PTX:    immediate post dominator      @  PC=0x1880 (_1.ptx:1071) @!%p23 bra $Lt_10_58114;
GPGPU-Sim PTX: 29 (potential) branch divergence @  PC=0x1860 (_1.ptx:1064) @%p23 bra $L_10_42498;
GPGPU-Sim PTX:    immediate post dominator      @  PC=0x1880 (_1.ptx:1071) @!%p23 bra $Lt_10_58114;
GPGPU-Sim PTX: 30 (potential) branch divergence @  PC=0x1868 (_1.ptx:1065) bra.uni $L_10_43266;
GPGPU-Sim PTX:    immediate post dominator      @  PC=0x1880 (_1.ptx:1071) @!%p23 bra $Lt_10_58114;
GPGPU-Sim PTX: 31 (potential) branch divergence @  PC=0x1880 (_1.ptx:1071) @!%p23 bra $Lt_10_58114;
GPGPU-Sim PTX:    immediate post dominator      @  PC=0x2080 (_1.ptx:1388) add.f32 %f399, %f126, %f126;
GPGPU-Sim PTX: 32 (potential) branch divergence @  PC=0x19c8 (_1.ptx:1115) @!%p24 bra $Lt_10_51714;
GPGPU-Sim PTX:    immediate post dominator      @  PC=0x2040 (_1.ptx:1375) mov.f32 %f394, 0f3f4ccccd;   // 0.8
GPGPU-Sim PTX: 33 (potential) branch divergence @  PC=0x19d8 (_1.ptx:1118) bra.uni $LDWendi___isnanf_192_1;
GPGPU-Sim PTX:    immediate post dominator      @  PC=0x2040 (_1.ptx:1375) mov.f32 %f394, 0f3f4ccccd;   // 0.8
GPGPU-Sim PTX: 34 (potential) branch divergence @  PC=0x19f8 (_1.ptx:1124) @!%p25 bra $Lt_10_7682;
GPGPU-Sim PTX:    immediate post dominator      @  PC=0x2040 (_1.ptx:1375) mov.f32 %f394, 0f3f4ccccd;   // 0.8
GPGPU-Sim PTX: 35 (potential) branch divergence @  PC=0x1a00 (_1.ptx:1125) bra.uni $Lt_10_7938;
GPGPU-Sim PTX:    immediate post dominator      @  PC=0x1a20 (_1.ptx:1133) mov.f32 %f272, 0f7f800000;   // ((1.0F)/(0.0F))
GPGPU-Sim PTX: 36 (potential) branch divergence @  PC=0x1a18 (_1.ptx:1130) bra.uni $LDWendi___isnanf_192_1;
GPGPU-Sim PTX:    immediate post dominator      @  PC=0x2040 (_1.ptx:1375) mov.f32 %f394, 0f3f4ccccd;   // 0.8
GPGPU-Sim PTX: 37 (potential) branch divergence @  PC=0x1a30 (_1.ptx:1135) @!%p26 bra $Lt_10_52226;
GPGPU-Sim PTX:    immediate post dominator      @  PC=0x2040 (_1.ptx:1375) mov.f32 %f394, 0f3f4ccccd;   // 0.8
GPGPU-Sim PTX: 38 (potential) branch divergence @  PC=0x1a40 (_1.ptx:1138) bra.uni $LDWendi___isnanf_192_1;
GPGPU-Sim PTX:    immediate post dominator      @  PC=0x2040 (_1.ptx:1375) mov.f32 %f394, 0f3f4ccccd;   // 0.8
GPGPU-Sim PTX: 39 (potential) branch divergence @  PC=0x1a58 (_1.ptx:1142) @!%p27 bra $Lt_10_52738;
GPGPU-Sim PTX:    immediate post dominator      @  PC=0x2040 (_1.ptx:1375) mov.f32 %f394, 0f3f4ccccd;   // 0.8
GPGPU-Sim PTX: 40 (potential) branch divergence @  PC=0x1ab8 (_1.ptx:1155) bra.uni $LDWendi___isnanf_192_1;
GPGPU-Sim PTX:    immediate post dominator      @  PC=0x2040 (_1.ptx:1375) mov.f32 %f394, 0f3f4ccccd;   // 0.8
GPGPU-Sim PTX: 41 (potential) branch divergence @  PC=0x1ad0 (_1.ptx:1159) @!%p29 bra $Lt_10_53250;
GPGPU-Sim PTX:    immediate post dominator      @  PC=0x2040 (_1.ptx:1375) mov.f32 %f394, 0f3f4ccccd;   // 0.8
GPGPU-Sim PTX: 42 (potential) branch divergence @  PC=0x1b20 (_1.ptx:1170) @!%p30 bra $Lt_10_53762;
GPGPU-Sim PTX:    immediate post dominator      @  PC=0x1b40 (_1.ptx:1177) mov.f32 %f268, %f284;
GPGPU-Sim PTX: 43 (potential) branch divergence @  PC=0x1b48 (_1.ptx:1178) bra.uni $LDWendi___isnanf_192_1;
GPGPU-Sim PTX:    immediate post dominator      @  PC=0x2040 (_1.ptx:1375) mov.f32 %f394, 0f3f4ccccd;   // 0.8
GPGPU-Sim PTX: 44 (potential) branch divergence @  PC=0x1b60 (_1.ptx:1183) @!%p31 bra $Lt_10_59394;
GPGPU-Sim PTX:    immediate post dominator      @  PC=0x2040 (_1.ptx:1375) mov.f32 %f394, 0f3f4ccccd;   // 0.8
GPGPU-Sim PTX: 45 (potential) branch divergence @  PC=0x1b88 (_1.ptx:1188) @!%p32 bra $Lt_10_59394;
GPGPU-Sim PTX:    immediate post dominator      @  PC=0x2040 (_1.ptx:1375) mov.f32 %f394, 0f3f4ccccd;   // 0.8
GPGPU-Sim PTX: 46 (potential) branch divergence @  PC=0x1ba0 (_1.ptx:1192) bra.uni $LDWendi___isnanf_192_1;
GPGPU-Sim PTX:    immediate post dominator      @  PC=0x2040 (_1.ptx:1375) mov.f32 %f394, 0f3f4ccccd;   // 0.8
GPGPU-Sim PTX: 47 (potential) branch divergence @  PC=0x1bd8 (_1.ptx:1202) @%p33 bra $Lt_10_54530;
GPGPU-Sim PTX:    immediate post dominator      @  PC=0x1c20 (_1.ptx:1216) sub.s32 %r64, %r64, 127;
GPGPU-Sim PTX: 48 (potential) branch divergence @  PC=0x1c10 (_1.ptx:1211) bra.uni $Lt_10_54274;
GPGPU-Sim PTX:    immediate post dominator      @  PC=0x1c20 (_1.ptx:1216) sub.s32 %r64, %r64, 127;
GPGPU-Sim PTX: 49 (potential) branch divergence @  PC=0x1c58 (_1.ptx:1224) @!%p34 bra $Lt_10_54786;
GPGPU-Sim PTX:    immediate post dominator      @  PC=0x1c78 (_1.ptx:1232) mov.f32 %f302, 0fbf800000;   // -1
GPGPU-Sim PTX: 50 (potential) branch divergence @  PC=0x1eb0 (_1.ptx:1312) @%p35 bra $Lt_10_55298;
GPGPU-Sim PTX:    immediate post dominator      @  PC=0x1ed8 (_1.ptx:1321) mov.f32 %f367, %f365;
GPGPU-Sim PTX: 51 (potential) branch divergence @  PC=0x1f98 (_1.ptx:1346) @!%p38 bra $Lt_10_55810;
GPGPU-Sim PTX:    immediate post dominator      @  PC=0x1fa8 (_1.ptx:1351) mov.f32 %f284, %f386;
GPGPU-Sim PTX: 52 (potential) branch divergence @  PC=0x2018 (_1.ptx:1365) @%p39 bra $Lt_10_56322;
GPGPU-Sim PTX:    immediate post dominator      @  PC=0x2038 (_1.ptx:1372) mov.f32 %f268, %f284;
GPGPU-Sim PTX: 53 (potential) branch divergence @  PC=0x2158 (_1.ptx:1419) @%p40 bra $L_10_42242;
GPGPU-Sim PTX:    immediate post dominator      @  PC=0x2170 (_1.ptx:1424) sub.s32 %r86, %r24, 1;
GPGPU-Sim PTX: 54 (potential) branch divergence @  PC=0x2168 (_1.ptx:1421) @%p41 bra $L_10_41474;
GPGPU-Sim PTX:    immediate post dominator      @  PC=0x2170 (_1.ptx:1424) sub.s32 %r86, %r24, 1;
GPGPU-Sim PTX: 55 (potential) branch divergence @  PC=0x2190 (_1.ptx:1428) @%p42 bra $Lt_10_56834;
GPGPU-Sim PTX:    immediate post dominator      @  PC=0x2288 (_1.ptx:1464) ld.global.u32 %r92, [%rd4+0];
GPGPU-Sim PTX: 56 (potential) branch divergence @  PC=0x2280 (_1.ptx:1461) @%p43 bra $Lt_10_57346;
GPGPU-Sim PTX:    immediate post dominator      @  PC=0x2288 (_1.ptx:1464) ld.global.u32 %r92, [%rd4+0];
GPGPU-Sim PTX: ... end of reconvergence points for _Z6renderPjP4Nodejjff
GPGPU-Sim PTX: ... done pre-decoding instructions for '_Z6renderPjP4Nodejjff'.
GPGPU-Sim PTX: instruction assembly for function '_ZN4dim3C1Ejjj'...   done.
GPGPU-Sim PTX: finding reconvergence points for '_ZN4dim3C1Ejjj'...
GPGPU-Sim PTX: Finding dominators for '_ZN4dim3C1Ejjj'...
GPGPU-Sim PTX: Finding immediate dominators for '_ZN4dim3C1Ejjj'...
GPGPU-Sim PTX: Finding postdominators for '_ZN4dim3C1Ejjj'...
GPGPU-Sim PTX: Finding immediate postdominators for '_ZN4dim3C1Ejjj'...
GPGPU-Sim PTX: pre-decoding instructions for '_ZN4dim3C1Ejjj'...
GPGPU-Sim PTX: reconvergence points for _ZN4dim3C1Ejjj...
GPGPU-Sim PTX: ... end of reconvergence points for _ZN4dim3C1Ejjj
GPGPU-Sim PTX: ... done pre-decoding instructions for '_ZN4dim3C1Ejjj'.
GPGPU-Sim PTX: finished parsing EMBEDDED .ptx file _1.ptx
Adding _cuobjdump_1.ptx with cubin handle 1
GPGPU-Sim PTX: extracting embedded .ptx to temporary file "_ptx_3YcAu0"
Running: cat _ptx_3YcAu0 | sed 's/.version 1.5/.version 1.4/' | sed 's/, texmode_independent//' | sed 's/\(\.extern \.const\[1\] .b8 \w\+\)\[\]/\1\[1\]/' | sed 's/const\[.\]/const\[0\]/g' > _ptx2_X7CrKn
GPGPU-Sim PTX: generating ptxinfo using "$CUDA_INSTALL_PATH/bin/ptxas --gpu-name=sm_20 -v _ptx2_X7CrKn --output-file  /dev/null 2> _ptx_3YcAu0info"
GPGPU-Sim PTX: Kernel '_Z6renderPjP4Nodejjff' : regs=45, lmem=4, smem=0, cmem=180
GPGPU-Sim PTX: removing ptxinfo using "rm -f _ptx_3YcAu0 _ptx2_X7CrKn _ptx_3YcAu0info"
GPGPU-Sim PTX: loading globals with explicit initializers... 
GPGPU-Sim PTX: finished loading globals (0 bytes total).
GPGPU-Sim PTX: loading constants with explicit initializers...  done.
GPGPU-Sim PTX: __cudaRegisterVar: hostVar = 0x62fda0; deviceAddress = MView; deviceName = MView
GPGPU-Sim PTX: __cudaRegisterVar: Registering const memory space of 48 bytes
GPGPU-Sim PTX registering constant MView (48 bytes) to name mapping
GPGPU-Sim PTX: __cudaRegisterVar: hostVar = 0x62fde0; deviceAddress = cnode; deviceName = cnode
GPGPU-Sim PTX: __cudaRegisterVar: Registering const memory space of 160 bytes
GPGPU-Sim PTX registering constant cnode (160 bytes) to name mapping
GPGPU-Sim PTX: cudaMemcpyToSymbol: symbol = 0x62fde0
GPGPU-Sim PTX: starting gpgpu_ptx_sim_memcpy_symbol with hostVar 0x0x62fde0
GPGPU-Sim PTX: gpgpu_ptx_sim_memcpy_symbol: Found PTX symbol w/ hostVar=0x62fde0
GPGPU-Sim PTX: gpgpu_ptx_sim_memcpy_symbol: copying const memory 160 bytes  to  symbol cnode+0 @0x100 ...
GPGPU-Sim PTX: cudaMemcpyToSymbol: symbol = 0x62fda0
GPGPU-Sim PTX: starting gpgpu_ptx_sim_memcpy_symbol with hostVar 0x0x62fda0
GPGPU-Sim PTX: gpgpu_ptx_sim_memcpy_symbol: Found PTX symbol w/ hostVar=0x62fda0
GPGPU-Sim PTX: gpgpu_ptx_sim_memcpy_symbol: copying const memory 48 bytes  to  symbol MView+0 @0x200 ...

GPGPU-Sim PTX: cudaLaunch for 0x0x40ce13 (mode=performance simulation) on stream 0
GPGPU-Sim PTX: pushing kernel '_Z6renderPjP4Nodejjff' to stream 0, gridDim= (16,32,1) blockDim = (16,8,1) 
kernel '_Z6renderPjP4Nodejjff' transfer to GPU hardware scheduler
GPGPU-Sim uArch: Shader 1 bind to kernel 1 '_Z6renderPjP4Nodejjff'
GPGPU-Sim uArch: CTA/core = 5, limited by: regs
GPGPU-Sim uArch: core:  1, cta: 0 initialized @(1,0)
GPGPU-Sim uArch: Shader 2 bind to kernel 1 '_Z6renderPjP4Nodejjff'
GPGPU-Sim uArch: core:  2, cta: 0 initialized @(1,0)
GPGPU-Sim uArch: Shader 3 bind to kernel 1 '_Z6renderPjP4Nodejjff'
GPGPU-Sim uArch: core:  3, cta: 0 initialized @(1,0)
GPGPU-Sim uArch: Shader 4 bind to kernel 1 '_Z6renderPjP4Nodejjff'
GPGPU-Sim uArch: core:  4, cta: 0 initialized @(1,0)
GPGPU-Sim uArch: Shader 5 bind to kernel 1 '_Z6renderPjP4Nodejjff'
GPGPU-Sim uArch: core:  5, cta: 0 initialized @(1,0)
GPGPU-Sim uArch: Shader 6 bind to kernel 1 '_Z6renderPjP4Nodejjff'
GPGPU-Sim uArch: core:  6, cta: 0 initialized @(1,0)
GPGPU-Sim uArch: Shader 7 bind to kernel 1 '_Z6renderPjP4Nodejjff'
GPGPU-Sim uArch: core:  7, cta: 0 initialized @(1,0)
GPGPU-Sim uArch: Shader 8 bind to kernel 1 '_Z6renderPjP4Nodejjff'
GPGPU-Sim uArch: core:  8, cta: 0 initialized @(1,0)
GPGPU-Sim uArch: Shader 9 bind to kernel 1 '_Z6renderPjP4Nodejjff'
GPGPU-Sim uArch: core:  9, cta: 0 initialized @(1,0)
GPGPU-Sim uArch: Shader 10 bind to kernel 1 '_Z6renderPjP4Nodejjff'
GPGPU-Sim uArch: core: 10, cta: 0 initialized @(1,0)
GPGPU-Sim uArch: Shader 11 bind to kernel 1 '_Z6renderPjP4Nodejjff'
GPGPU-Sim uArch: core: 11, cta: 0 initialized @(1,0)
GPGPU-Sim uArch: Shader 12 bind to kernel 1 '_Z6renderPjP4Nodejjff'
GPGPU-Sim uArch: core: 12, cta: 0 initialized @(1,0)
GPGPU-Sim uArch: Shader 13 bind to kernel 1 '_Z6renderPjP4Nodejjff'
GPGPU-Sim uArch: core: 13, cta: 0 initialized @(1,0)
GPGPU-Sim uArch: Shader 14 bind to kernel 1 '_Z6renderPjP4Nodejjff'
GPGPU-Sim uArch: core: 14, cta: 0 initialized @(1,0)
GPGPU-Sim uArch: Shader 0 bind to kernel 1 '_Z6renderPjP4Nodejjff'
GPGPU-Sim uArch: core:  0, cta: 0 initialized @(1,0)
GPGPU-Sim uArch: core:  1, cta: 1 initialized @(2,0)
GPGPU-Sim uArch: core:  2, cta: 1 initialized @(2,0)
GPGPU-Sim uArch: core:  3, cta: 1 initialized @(2,0)
GPGPU-Sim uArch: core:  4, cta: 1 initialized @(2,0)
GPGPU-Sim uArch: core:  5, cta: 1 initialized @(2,0)
GPGPU-Sim uArch: core:  6, cta: 1 initialized @(2,0)
GPGPU-Sim uArch: core:  7, cta: 1 initialized @(2,0)
GPGPU-Sim uArch: core:  8, cta: 1 initialized @(2,0)
GPGPU-Sim uArch: core:  9, cta: 1 initialized @(2,0)
GPGPU-Sim uArch: core: 10, cta: 1 initialized @(2,0)
GPGPU-Sim uArch: core: 11, cta: 1 initialized @(2,0)
GPGPU-Sim uArch: core: 12, cta: 1 initialized @(2,0)
GPGPU-Sim uArch: core: 13, cta: 1 initialized @(2,0)
GPGPU-Sim uArch: core: 14, cta: 1 initialized @(2,0)
GPGPU-Sim uArch: core:  0, cta: 1 initialized @(2,0)
GPGPU-Sim uArch: core:  1, cta: 2 initialized @(3,0)
GPGPU-Sim uArch: core:  2, cta: 2 initialized @(3,0)
GPGPU-Sim uArch: core:  3, cta: 2 initialized @(3,0)
GPGPU-Sim uArch: core:  4, cta: 2 initialized @(3,0)
GPGPU-Sim uArch: core:  5, cta: 2 initialized @(3,0)
GPGPU-Sim uArch: core:  6, cta: 2 initialized @(3,0)
GPGPU-Sim uArch: core:  7, cta: 2 initialized @(3,0)
GPGPU-Sim uArch: core:  8, cta: 2 initialized @(3,0)
GPGPU-Sim uArch: core:  9, cta: 2 initialized @(3,0)
GPGPU-Sim uArch: core: 10, cta: 2 initialized @(3,0)
GPGPU-Sim uArch: core: 11, cta: 2 initialized @(3,0)
GPGPU-Sim uArch: core: 12, cta: 2 initialized @(3,0)
GPGPU-Sim uArch: core: 13, cta: 2 initialized @(3,0)
GPGPU-Sim uArch: core: 14, cta: 2 initialized @(3,0)
GPGPU-Sim uArch: core:  0, cta: 2 initialized @(3,0)
GPGPU-Sim uArch: core:  1, cta: 3 initialized @(4,0)
GPGPU-Sim uArch: core:  2, cta: 3 initialized @(4,0)
GPGPU-Sim uArch: core:  3, cta: 3 initialized @(4,0)
GPGPU-Sim uArch: core:  4, cta: 3 initialized @(4,0)
GPGPU-Sim uArch: core:  5, cta: 3 initialized @(4,0)
GPGPU-Sim uArch: core:  6, cta: 3 initialized @(4,0)
GPGPU-Sim uArch: core:  7, cta: 3 initialized @(4,0)
GPGPU-Sim uArch: core:  8, cta: 3 initialized @(4,0)
GPGPU-Sim uArch: core:  9, cta: 3 initialized @(4,0)
GPGPU-Sim uArch: core: 10, cta: 3 initialized @(4,0)
GPGPU-Sim uArch: core: 11, cta: 3 initialized @(4,0)
GPGPU-Sim uArch: core: 12, cta: 3 initialized @(4,0)
GPGPU-Sim uArch: core: 13, cta: 3 initialized @(4,0)
GPGPU-Sim uArch: core: 14, cta: 3 initialized @(4,0)
GPGPU-Sim uArch: core:  0, cta: 3 initialized @(4,0)
GPGPU-Sim uArch: core:  1, cta: 4 initialized @(5,0)
GPGPU-Sim uArch: core:  2, cta: 4 initialized @(5,0)
GPGPU-Sim uArch: core:  3, cta: 4 initialized @(5,0)
GPGPU-Sim uArch: core:  4, cta: 4 initialized @(5,0)
GPGPU-Sim uArch: core:  5, cta: 4 initialized @(5,0)
GPGPU-Sim uArch: core:  6, cta: 4 initialized @(5,0)
GPGPU-Sim uArch: core:  7, cta: 4 initialized @(5,0)
GPGPU-Sim uArch: core:  8, cta: 4 initialized @(5,0)
GPGPU-Sim uArch: core:  9, cta: 4 initialized @(5,0)
GPGPU-Sim uArch: core: 10, cta: 4 initialized @(5,0)
GPGPU-Sim uArch: core: 11, cta: 4 initialized @(5,0)
GPGPU-Sim uArch: core: 12, cta: 4 initialized @(5,0)
GPGPU-Sim uArch: core: 13, cta: 4 initialized @(5,0)
GPGPU-Sim uArch: core: 14, cta: 4 initialized @(5,0)
GPGPU-Sim uArch: core:  0, cta: 4 initialized @(5,0)
GPGPU-Sim uArch: cycles simulated: 500  inst.: 36032 (ipc=72.1) sim_rate=36032 (inst/sec) elapsed = 0:0:00:01 / Sun Feb 28 21:37:37 2016
GPGPU-Sim PTX: 100000 instructions simulated : ctaid=(9,0,0) tid=(15,1,0)
GPGPU-Sim uArch: cycles simulated: 2500  inst.: 107904 (ipc=43.2) sim_rate=53952 (inst/sec) elapsed = 0:0:00:02 / Sun Feb 28 21:37:38 2016
GPGPU-Sim PTX: 200000 instructions simulated : ctaid=(2,0,0) tid=(15,5,0)
GPGPU-Sim PTX: 300000 instructions simulated : ctaid=(7,0,0) tid=(15,5,0)
GPGPU-Sim uArch: cycles simulated: 5000  inst.: 323424 (ipc=64.7) sim_rate=107808 (inst/sec) elapsed = 0:0:00:03 / Sun Feb 28 21:37:39 2016
GPGPU-Sim PTX: 400000 instructions simulated : ctaid=(4,0,0) tid=(15,1,0)
GPGPU-Sim PTX: 500000 instructions simulated : ctaid=(0,3,0) tid=(15,5,0)
GPGPU-Sim PTX: 600000 instructions simulated : ctaid=(1,1,0) tid=(15,5,0)
GPGPU-Sim uArch: cycles simulated: 6500  inst.: 606592 (ipc=93.3) sim_rate=151648 (inst/sec) elapsed = 0:0:00:04 / Sun Feb 28 21:37:40 2016
GPGPU-Sim PTX: 700000 instructions simulated : ctaid=(0,0,0) tid=(15,7,0)
GPGPU-Sim PTX: 800000 instructions simulated : ctaid=(2,3,0) tid=(15,7,0)
GPGPU-Sim PTX: 900000 instructions simulated : ctaid=(3,2,0) tid=(15,7,0)
GPGPU-Sim uArch: cycles simulated: 8000  inst.: 926304 (ipc=115.8) sim_rate=185260 (inst/sec) elapsed = 0:0:00:05 / Sun Feb 28 21:37:41 2016
GPGPU-Sim PTX: 1000000 instructions simulated : ctaid=(0,4,0) tid=(15,3,0)
GPGPU-Sim PTX: 1100000 instructions simulated : ctaid=(2,4,0) tid=(15,3,0)
GPGPU-Sim PTX: 1200000 instructions simulated : ctaid=(12,3,0) tid=(15,5,0)
GPGPU-Sim PTX: 1300000 instructions simulated : ctaid=(4,1,0) tid=(15,1,0)
GPGPU-Sim PTX: 1400000 instructions simulated : ctaid=(3,2,0) tid=(15,7,0)
GPGPU-Sim PTX: 1500000 instructions simulated : ctaid=(11,2,0) tid=(15,3,0)
GPGPU-Sim uArch: cycles simulated: 9500  inst.: 1552352 (ipc=163.4) sim_rate=258725 (inst/sec) elapsed = 0:0:00:06 / Sun Feb 28 21:37:42 2016
GPGPU-Sim PTX: 1600000 instructions simulated : ctaid=(10,1,0) tid=(15,7,0)
GPGPU-Sim PTX: 1700000 instructions simulated : ctaid=(2,2,0) tid=(15,5,0)
GPGPU-Sim PTX: 1800000 instructions simulated : ctaid=(7,2,0) tid=(15,3,0)
GPGPU-Sim PTX: 1900000 instructions simulated : ctaid=(10,2,0) tid=(15,7,0)
GPGPU-Sim uArch: cycles simulated: 10000  inst.: 1930752 (ipc=193.1) sim_rate=275821 (inst/sec) elapsed = 0:0:00:07 / Sun Feb 28 21:37:43 2016
GPGPU-Sim PTX: 2000000 instructions simulated : ctaid=(8,2,0) tid=(15,1,0)
GPGPU-Sim PTX: 2100000 instructions simulated : ctaid=(9,0,0) tid=(15,3,0)
GPGPU-Sim PTX: 2200000 instructions simulated : ctaid=(14,1,0) tid=(15,1,0)
GPGPU-Sim PTX: 2300000 instructions simulated : ctaid=(11,2,0) tid=(15,5,0)
GPGPU-Sim PTX: 2400000 instructions simulated : ctaid=(11,1,0) tid=(15,5,0)
GPGPU-Sim PTX: 2500000 instructions simulated : ctaid=(0,0,0) tid=(15,3,0)
GPGPU-Sim PTX: 2600000 instructions simulated : ctaid=(8,2,0) tid=(15,1,0)
GPGPU-Sim PTX: 2700000 instructions simulated : ctaid=(2,2,0) tid=(15,7,0)
GPGPU-Sim uArch: cycles simulated: 11000  inst.: 2688160 (ipc=244.4) sim_rate=336020 (inst/sec) elapsed = 0:0:00:08 / Sun Feb 28 21:37:44 2016
GPGPU-Sim PTX: 2800000 instructions simulated : ctaid=(12,3,0) tid=(15,7,0)
GPGPU-Sim PTX: 2900000 instructions simulated : ctaid=(9,0,0) tid=(15,5,0)
GPGPU-Sim PTX: 3000000 instructions simulated : ctaid=(3,4,0) tid=(15,7,0)
GPGPU-Sim PTX: 3100000 instructions simulated : ctaid=(12,0,0) tid=(15,5,0)
GPGPU-Sim PTX: 3200000 instructions simulated : ctaid=(0,4,0) tid=(15,5,0)
GPGPU-Sim PTX: 3300000 instructions simulated : ctaid=(7,1,0) tid=(15,1,0)
GPGPU-Sim uArch: cycles simulated: 12000  inst.: 3265536 (ipc=272.1) sim_rate=362837 (inst/sec) elapsed = 0:0:00:09 / Sun Feb 28 21:37:45 2016
GPGPU-Sim PTX: 3400000 instructions simulated : ctaid=(5,1,0) tid=(15,3,0)
GPGPU-Sim PTX: 3500000 instructions simulated : ctaid=(14,3,0) tid=(15,3,0)
GPGPU-Sim PTX: 3600000 instructions simulated : ctaid=(12,1,0) tid=(15,1,0)
GPGPU-Sim PTX: 3700000 instructions simulated : ctaid=(14,0,0) tid=(15,3,0)
GPGPU-Sim uArch: cycles simulated: 13000  inst.: 3607392 (ipc=277.5) sim_rate=360739 (inst/sec) elapsed = 0:0:00:10 / Sun Feb 28 21:37:46 2016
GPGPU-Sim PTX: 3800000 instructions simulated : ctaid=(3,0,0) tid=(15,7,0)
GPGPU-Sim PTX: 3900000 instructions simulated : ctaid=(12,1,0) tid=(15,5,0)
GPGPU-Sim PTX: 4000000 instructions simulated : ctaid=(13,3,0) tid=(15,5,0)
GPGPU-Sim PTX: 4100000 instructions simulated : ctaid=(0,2,0) tid=(15,7,0)
GPGPU-Sim PTX: 4200000 instructions simulated : ctaid=(12,1,0) tid=(15,5,0)
GPGPU-Sim uArch: cycles simulated: 14500  inst.: 4096576 (ipc=282.5) sim_rate=372416 (inst/sec) elapsed = 0:0:00:11 / Sun Feb 28 21:37:47 2016
GPGPU-Sim PTX: 4300000 instructions simulated : ctaid=(14,3,0) tid=(15,1,0)
GPGPU-Sim PTX: 4400000 instructions simulated : ctaid=(14,2,0) tid=(15,7,0)
GPGPU-Sim PTX: 4500000 instructions simulated : ctaid=(1,4,0) tid=(15,3,0)
GPGPU-Sim PTX: 4600000 instructions simulated : ctaid=(3,2,0) tid=(0,5,0)
GPGPU-Sim PTX: 4700000 instructions simulated : ctaid=(10,4,0) tid=(13,3,0)
GPGPU-Sim PTX: 4800000 instructions simulated : ctaid=(1,0,0) tid=(15,6,0)
GPGPU-Sim PTX: 4900000 instructions simulated : ctaid=(12,0,0) tid=(15,6,0)
GPGPU-Sim PTX: 5000000 instructions simulated : ctaid=(8,3,0) tid=(15,0,0)
GPGPU-Sim PTX: 5100000 instructions simulated : ctaid=(0,4,0) tid=(15,4,0)
GPGPU-Sim uArch: cycles simulated: 16000  inst.: 4959536 (ipc=310.0) sim_rate=413294 (inst/sec) elapsed = 0:0:00:12 / Sun Feb 28 21:37:48 2016
GPGPU-Sim PTX: 5200000 instructions simulated : ctaid=(11,2,0) tid=(15,0,0)
GPGPU-Sim PTX: 5300000 instructions simulated : ctaid=(12,0,0) tid=(15,2,0)
GPGPU-Sim PTX: 5400000 instructions simulated : ctaid=(5,0,0) tid=(15,2,0)
GPGPU-Sim PTX: 5500000 instructions simulated : ctaid=(4,4,0) tid=(2,0,0)
GPGPU-Sim uArch: cycles simulated: 16500  inst.: 5357128 (ipc=324.7) sim_rate=412086 (inst/sec) elapsed = 0:0:00:13 / Sun Feb 28 21:37:49 2016
GPGPU-Sim PTX: 5600000 instructions simulated : ctaid=(14,2,0) tid=(8,5,0)
GPGPU-Sim PTX: 5700000 instructions simulated : ctaid=(2,3,0) tid=(9,0,0)
GPGPU-Sim PTX: 5800000 instructions simulated : ctaid=(7,4,0) tid=(5,5,0)
GPGPU-Sim PTX: 5900000 instructions simulated : ctaid=(9,2,0) tid=(7,0,0)
GPGPU-Sim PTX: 6000000 instructions simulated : ctaid=(9,4,0) tid=(8,3,0)
GPGPU-Sim PTX: 6100000 instructions simulated : ctaid=(10,2,0) tid=(11,1,0)
GPGPU-Sim uArch: cycles simulated: 17500  inst.: 5923044 (ipc=338.5) sim_rate=423074 (inst/sec) elapsed = 0:0:00:14 / Sun Feb 28 21:37:50 2016
GPGPU-Sim PTX: 6200000 instructions simulated : ctaid=(7,4,0) tid=(11,7,0)
GPGPU-Sim PTX: 6300000 instructions simulated : ctaid=(11,3,0) tid=(11,3,0)
GPGPU-Sim PTX: 6400000 instructions simulated : ctaid=(11,0,0) tid=(11,5,0)
GPGPU-Sim uArch: cycles simulated: 19000  inst.: 6240100 (ipc=328.4) sim_rate=416006 (inst/sec) elapsed = 0:0:00:15 / Sun Feb 28 21:37:51 2016
GPGPU-Sim PTX: 6500000 instructions simulated : ctaid=(14,3,0) tid=(3,3,0)
GPGPU-Sim PTX: 6600000 instructions simulated : ctaid=(13,0,0) tid=(11,5,0)
GPGPU-Sim PTX: 6700000 instructions simulated : ctaid=(11,3,0) tid=(11,7,0)
GPGPU-Sim PTX: 6800000 instructions simulated : ctaid=(7,2,0) tid=(11,3,0)
GPGPU-Sim PTX: 6900000 instructions simulated : ctaid=(10,2,0) tid=(11,5,0)
GPGPU-Sim uArch: cycles simulated: 20500  inst.: 6778628 (ipc=330.7) sim_rate=423664 (inst/sec) elapsed = 0:0:00:16 / Sun Feb 28 21:37:52 2016
GPGPU-Sim PTX: 7000000 instructions simulated : ctaid=(7,0,0) tid=(11,7,0)
GPGPU-Sim PTX: 7100000 instructions simulated : ctaid=(3,3,0) tid=(11,3,0)
GPGPU-Sim uArch: cycles simulated: 21000  inst.: 6964196 (ipc=331.6) sim_rate=409658 (inst/sec) elapsed = 0:0:00:17 / Sun Feb 28 21:37:53 2016
GPGPU-Sim PTX: 7200000 instructions simulated : ctaid=(12,2,0) tid=(11,1,0)
GPGPU-Sim PTX: 7300000 instructions simulated : ctaid=(3,0,0) tid=(11,3,0)
GPGPU-Sim PTX: 7400000 instructions simulated : ctaid=(9,2,0) tid=(11,7,0)
GPGPU-Sim PTX: 7500000 instructions simulated : ctaid=(3,4,0) tid=(11,5,0)
GPGPU-Sim PTX: 7600000 instructions simulated : ctaid=(10,2,0) tid=(11,7,0)
GPGPU-Sim uArch: cycles simulated: 22500  inst.: 7465348 (ipc=331.8) sim_rate=414741 (inst/sec) elapsed = 0:0:00:18 / Sun Feb 28 21:37:54 2016
GPGPU-Sim PTX: 7700000 instructions simulated : ctaid=(15,2,0) tid=(11,1,0)
GPGPU-Sim PTX: 7800000 instructions simulated : ctaid=(5,3,0) tid=(11,7,0)
GPGPU-Sim PTX: 7900000 instructions simulated : ctaid=(14,1,0) tid=(11,3,0)
GPGPU-Sim PTX: 8000000 instructions simulated : ctaid=(1,3,0) tid=(11,7,0)
GPGPU-Sim PTX: 8100000 instructions simulated : ctaid=(4,1,0) tid=(11,1,0)
GPGPU-Sim uArch: cycles simulated: 24000  inst.: 7982020 (ipc=332.6) sim_rate=420106 (inst/sec) elapsed = 0:0:00:19 / Sun Feb 28 21:37:55 2016
GPGPU-Sim PTX: 8200000 instructions simulated : ctaid=(13,1,0) tid=(11,5,0)
GPGPU-Sim PTX: 8300000 instructions simulated : ctaid=(13,1,0) tid=(11,1,0)
GPGPU-Sim PTX: 8400000 instructions simulated : ctaid=(4,1,0) tid=(11,7,0)
GPGPU-Sim PTX: 8500000 instructions simulated : ctaid=(5,4,0) tid=(11,1,0)
GPGPU-Sim PTX: 8600000 instructions simulated : ctaid=(14,3,0) tid=(11,3,0)
GPGPU-Sim PTX: 8700000 instructions simulated : ctaid=(2,3,0) tid=(13,4,0)
GPGPU-Sim PTX: 8800000 instructions simulated : ctaid=(8,3,0) tid=(15,1,0)
GPGPU-Sim uArch: cycles simulated: 25000  inst.: 8613243 (ipc=344.5) sim_rate=430662 (inst/sec) elapsed = 0:0:00:20 / Sun Feb 28 21:37:56 2016
GPGPU-Sim PTX: 8900000 instructions simulated : ctaid=(2,1,0) tid=(11,3,0)
GPGPU-Sim PTX: 9000000 instructions simulated : ctaid=(12,2,0) tid=(11,7,0)
GPGPU-Sim PTX: 9100000 instructions simulated : ctaid=(1,2,0) tid=(4,1,0)
GPGPU-Sim PTX: 9200000 instructions simulated : ctaid=(11,0,0) tid=(6,4,0)
GPGPU-Sim uArch: cycles simulated: 25500  inst.: 9015988 (ipc=353.6) sim_rate=429332 (inst/sec) elapsed = 0:0:00:21 / Sun Feb 28 21:37:57 2016
GPGPU-Sim PTX: 9300000 instructions simulated : ctaid=(8,0,0) tid=(7,5,0)
GPGPU-Sim PTX: 9400000 instructions simulated : ctaid=(12,0,0) tid=(0,1,0)
GPGPU-Sim PTX: 9500000 instructions simulated : ctaid=(5,3,0) tid=(2,2,0)
GPGPU-Sim PTX: 9600000 instructions simulated : ctaid=(0,2,0) tid=(9,2,0)
GPGPU-Sim PTX: 9700000 instructions simulated : ctaid=(1,2,0) tid=(1,0,0)
GPGPU-Sim PTX: 9800000 instructions simulated : ctaid=(3,2,0) tid=(12,7,0)
GPGPU-Sim PTX: 9900000 instructions simulated : ctaid=(6,0,0) tid=(3,0,0)
GPGPU-Sim uArch: cycles simulated: 26500  inst.: 9722129 (ipc=366.9) sim_rate=441914 (inst/sec) elapsed = 0:0:00:22 / Sun Feb 28 21:37:58 2016
GPGPU-Sim PTX: 10000000 instructions simulated : ctaid=(14,3,0) tid=(9,7,0)
GPGPU-Sim PTX: 10100000 instructions simulated : ctaid=(5,4,0) tid=(9,6,0)
GPGPU-Sim PTX: 10200000 instructions simulated : ctaid=(14,2,0) tid=(8,7,0)
GPGPU-Sim PTX: 10300000 instructions simulated : ctaid=(9,3,0) tid=(0,0,0)
GPGPU-Sim uArch: cycles simulated: 28000  inst.: 10097953 (ipc=360.6) sim_rate=439041 (inst/sec) elapsed = 0:0:00:23 / Sun Feb 28 21:37:59 2016
GPGPU-Sim PTX: 10400000 instructions simulated : ctaid=(3,2,0) tid=(7,7,0)
GPGPU-Sim uArch: Shader 14 finished CTA #0 (28076,0), 4 CTAs running
GPGPU-Sim uArch: core: 14, cta: 0 initialized @(28077,0)
GPGPU-Sim uArch: Shader 0 finished CTA #0 (28090,0), 4 CTAs running
GPGPU-Sim uArch: core:  0, cta: 0 initialized @(28091,0)
GPGPU-Sim uArch: Shader 0 finished CTA #1 (28130,0), 4 CTAs running
GPGPU-Sim uArch: core:  0, cta: 1 initialized @(28131,0)
GPGPU-Sim uArch: Shader 2 finished CTA #1 (28192,0), 4 CTAs running
GPGPU-Sim uArch: core:  2, cta: 1 initialized @(28193,0)
GPGPU-Sim uArch: Shader 8 finished CTA #2 (28204,0), 4 CTAs running
GPGPU-Sim uArch: core:  8, cta: 2 initialized @(28205,0)
GPGPU-Sim uArch: Shader 0 finished CTA #3 (28212,0), 4 CTAs running
GPGPU-Sim uArch: core:  0, cta: 3 initialized @(28213,0)
GPGPU-Sim uArch: Shader 2 finished CTA #0 (28228,0), 4 CTAs running
GPGPU-Sim uArch: core:  2, cta: 0 initialized @(28229,0)
GPGPU-Sim uArch: Shader 8 finished CTA #3 (28234,0), 4 CTAs running
GPGPU-Sim uArch: core:  8, cta: 3 initialized @(28235,0)
GPGPU-Sim uArch: Shader 9 finished CTA #3 (28235,0), 4 CTAs running
GPGPU-Sim uArch: core:  9, cta: 3 initialized @(28236,0)
GPGPU-Sim uArch: Shader 2 finished CTA #2 (28244,0), 4 CTAs running
GPGPU-Sim uArch: Shader 8 finished CTA #4 (28244,0), 4 CTAs running
GPGPU-Sim uArch: core:  2, cta: 2 initialized @(28245,0)
GPGPU-Sim uArch: core:  8, cta: 4 initialized @(28245,0)
GPGPU-Sim uArch: Shader 9 finished CTA #4 (28250,0), 4 CTAs running
GPGPU-Sim uArch: core:  9, cta: 4 initialized @(28251,0)
GPGPU-Sim uArch: Shader 0 finished CTA #2 (28256,0), 4 CTAs running
GPGPU-Sim uArch: core:  0, cta: 2 initialized @(28257,0)
GPGPU-Sim uArch: Shader 6 finished CTA #4 (28268,0), 4 CTAs running
GPGPU-Sim uArch: core:  6, cta: 4 initialized @(28269,0)
GPGPU-Sim uArch: Shader 1 finished CTA #0 (28278,0), 4 CTAs running
GPGPU-Sim uArch: core:  1, cta: 0 initialized @(28279,0)
GPGPU-Sim uArch: Shader 3 finished CTA #0 (28282,0), 4 CTAs running
GPGPU-Sim uArch: core:  3, cta: 0 initialized @(28283,0)
GPGPU-Sim uArch: Shader 2 finished CTA #3 (28286,0), 4 CTAs running
GPGPU-Sim uArch: core:  2, cta: 3 initialized @(28287,0)
GPGPU-Sim uArch: Shader 0 finished CTA #4 (28289,0), 4 CTAs running
GPGPU-Sim uArch: core:  0, cta: 4 initialized @(28290,0)
GPGPU-Sim uArch: Shader 2 finished CTA #4 (28291,0), 4 CTAs running
GPGPU-Sim uArch: core:  2, cta: 4 initialized @(28292,0)
GPGPU-Sim uArch: Shader 1 finished CTA #1 (28298,0), 4 CTAs running
GPGPU-Sim uArch: Shader 6 finished CTA #2 (28298,0), 4 CTAs running
GPGPU-Sim uArch: core:  6, cta: 2 initialized @(28299,0)
GPGPU-Sim uArch: core:  1, cta: 1 initialized @(28299,0)
GPGPU-Sim uArch: Shader 3 finished CTA #1 (28306,0), 4 CTAs running
GPGPU-Sim uArch: core:  3, cta: 1 initialized @(28307,0)
GPGPU-Sim uArch: Shader 4 finished CTA #2 (28310,0), 4 CTAs running
GPGPU-Sim uArch: core:  4, cta: 2 initialized @(28311,0)
GPGPU-Sim uArch: Shader 6 finished CTA #3 (28314,0), 4 CTAs running
GPGPU-Sim uArch: core:  6, cta: 3 initialized @(28315,0)
GPGPU-Sim uArch: Shader 1 finished CTA #2 (28322,0), 4 CTAs running
GPGPU-Sim uArch: core:  1, cta: 2 initialized @(28323,0)
GPGPU-Sim uArch: Shader 1 finished CTA #4 (28337,0), 4 CTAs running
GPGPU-Sim uArch: core:  1, cta: 4 initialized @(28338,0)
GPGPU-Sim uArch: Shader 4 finished CTA #1 (28343,0), 4 CTAs running
GPGPU-Sim uArch: core:  4, cta: 1 initialized @(28344,0)
GPGPU-Sim uArch: Shader 3 finished CTA #2 (28344,0), 4 CTAs running
GPGPU-Sim uArch: core:  3, cta: 2 initialized @(28345,0)
GPGPU-Sim uArch: Shader 1 finished CTA #3 (28349,0), 4 CTAs running
GPGPU-Sim uArch: core:  1, cta: 3 initialized @(28350,0)
GPGPU-Sim uArch: Shader 3 finished CTA #4 (28365,0), 4 CTAs running
GPGPU-Sim uArch: core:  3, cta: 4 initialized @(28366,0)
GPGPU-Sim uArch: Shader 5 finished CTA #2 (28382,0), 4 CTAs running
GPGPU-Sim uArch: core:  5, cta: 2 initialized @(28383,0)
GPGPU-Sim uArch: Shader 4 finished CTA #3 (28384,0), 4 CTAs running
GPGPU-Sim uArch: core:  4, cta: 3 initialized @(28385,0)
GPGPU-Sim uArch: Shader 5 finished CTA #3 (28390,0), 4 CTAs running
GPGPU-Sim uArch: core:  5, cta: 3 initialized @(28391,0)
GPGPU-Sim PTX: 10500000 instructions simulated : ctaid=(6,5,0) tid=(11,3,0)
GPGPU-Sim uArch: Shader 4 finished CTA #4 (28405,0), 4 CTAs running
GPGPU-Sim uArch: core:  4, cta: 4 initialized @(28406,0)
GPGPU-Sim uArch: Shader 7 finished CTA #3 (28473,0), 4 CTAs running
GPGPU-Sim uArch: core:  7, cta: 3 initialized @(28474,0)
GPGPU-Sim uArch: Shader 3 finished CTA #3 (28483,0), 4 CTAs running
GPGPU-Sim uArch: core:  3, cta: 3 initialized @(28484,0)
GPGPU-Sim uArch: Shader 7 finished CTA #4 (28499,0), 4 CTAs running
GPGPU-Sim uArch: core:  7, cta: 4 initialized @(28500,0)
GPGPU-Sim uArch: cycles simulated: 28500  inst.: 10264294 (ipc=360.2) sim_rate=427678 (inst/sec) elapsed = 0:0:00:24 / Sun Feb 28 21:38:00 2016
GPGPU-Sim uArch: Shader 5 finished CTA #4 (28505,0), 4 CTAs running
GPGPU-Sim uArch: core:  5, cta: 4 initialized @(28506,0)
GPGPU-Sim uArch: Shader 10 finished CTA #4 (28640,0), 4 CTAs running
GPGPU-Sim uArch: core: 10, cta: 4 initialized @(28641,0)
GPGPU-Sim PTX: 10600000 instructions simulated : ctaid=(3,0,0) tid=(13,3,0)
GPGPU-Sim PTX: 10700000 instructions simulated : ctaid=(7,0,0) tid=(7,4,0)
GPGPU-Sim PTX: 10800000 instructions simulated : ctaid=(7,0,0) tid=(1,2,0)
GPGPU-Sim uArch: cycles simulated: 29500  inst.: 10596703 (ipc=359.2) sim_rate=423868 (inst/sec) elapsed = 0:0:00:25 / Sun Feb 28 21:38:01 2016
GPGPU-Sim PTX: 10900000 instructions simulated : ctaid=(9,1,0) tid=(13,1,0)
GPGPU-Sim PTX: 11000000 instructions simulated : ctaid=(6,5,0) tid=(3,3,0)
GPGPU-Sim PTX: 11100000 instructions simulated : ctaid=(15,5,0) tid=(5,3,0)
GPGPU-Sim PTX: 11200000 instructions simulated : ctaid=(15,6,0) tid=(4,0,0)
GPGPU-Sim PTX: 11300000 instructions simulated : ctaid=(7,5,0) tid=(10,1,0)
GPGPU-Sim PTX: 11400000 instructions simulated : ctaid=(12,4,0) tid=(5,3,0)
GPGPU-Sim uArch: cycles simulated: 30500  inst.: 11106705 (ipc=364.2) sim_rate=427180 (inst/sec) elapsed = 0:0:00:26 / Sun Feb 28 21:38:02 2016
GPGPU-Sim PTX: 11500000 instructions simulated : ctaid=(1,5,0) tid=(9,3,0)
GPGPU-Sim PTX: 11600000 instructions simulated : ctaid=(11,5,0) tid=(13,4,0)
GPGPU-Sim uArch: cycles simulated: 31000  inst.: 11370258 (ipc=366.8) sim_rate=421120 (inst/sec) elapsed = 0:0:00:27 / Sun Feb 28 21:38:03 2016
GPGPU-Sim PTX: 11700000 instructions simulated : ctaid=(5,5,0) tid=(0,3,0)
GPGPU-Sim PTX: 11800000 instructions simulated : ctaid=(3,6,0) tid=(15,2,0)
GPGPU-Sim PTX: 11900000 instructions simulated : ctaid=(12,4,0) tid=(9,3,0)
GPGPU-Sim PTX: 12000000 instructions simulated : ctaid=(12,6,0) tid=(11,6,0)
GPGPU-Sim PTX: 12100000 instructions simulated : ctaid=(12,0,0) tid=(3,1,0)
GPGPU-Sim PTX: 12200000 instructions simulated : ctaid=(6,5,0) tid=(3,4,0)
GPGPU-Sim uArch: cycles simulated: 32000  inst.: 11970088 (ipc=374.1) sim_rate=427503 (inst/sec) elapsed = 0:0:00:28 / Sun Feb 28 21:38:04 2016
GPGPU-Sim PTX: 12300000 instructions simulated : ctaid=(0,6,0) tid=(12,7,0)
GPGPU-Sim PTX: 12400000 instructions simulated : ctaid=(4,6,0) tid=(4,1,0)
GPGPU-Sim PTX: 12500000 instructions simulated : ctaid=(12,4,0) tid=(1,7,0)
GPGPU-Sim uArch: Shader 14 finished CTA #2 (32437,0), 4 CTAs running
GPGPU-Sim uArch: core: 14, cta: 2 initialized @(32438,0)
GPGPU-Sim PTX: 12600000 instructions simulated : ctaid=(9,2,0) tid=(8,4,0)
GPGPU-Sim uArch: cycles simulated: 32500  inst.: 12283989 (ipc=378.0) sim_rate=423585 (inst/sec) elapsed = 0:0:00:29 / Sun Feb 28 21:38:05 2016
GPGPU-Sim PTX: 12700000 instructions simulated : ctaid=(4,6,0) tid=(1,3,0)
GPGPU-Sim PTX: 12800000 instructions simulated : ctaid=(9,6,0) tid=(9,2,0)
GPGPU-Sim PTX: 12900000 instructions simulated : ctaid=(11,5,0) tid=(14,0,0)
GPGPU-Sim PTX: 13000000 instructions simulated : ctaid=(3,6,0) tid=(3,0,0)
GPGPU-Sim PTX: 13100000 instructions simulated : ctaid=(6,5,0) tid=(1,2,0)
GPGPU-Sim uArch: Shader 7 finished CTA #2 (33352,0), 4 CTAs running
GPGPU-Sim uArch: core:  7, cta: 2 initialized @(33353,0)
GPGPU-Sim uArch: cycles simulated: 33500  inst.: 12848432 (ipc=383.5) sim_rate=428281 (inst/sec) elapsed = 0:0:00:30 / Sun Feb 28 21:38:06 2016
GPGPU-Sim PTX: 13200000 instructions simulated : ctaid=(7,2,0) tid=(12,4,0)
GPGPU-Sim PTX: 13300000 instructions simulated : ctaid=(7,4,0) tid=(11,2,0)
GPGPU-Sim PTX: 13400000 instructions simulated : ctaid=(3,5,0) tid=(9,5,0)
GPGPU-Sim PTX: 13500000 instructions simulated : ctaid=(11,4,0) tid=(3,4,0)
GPGPU-Sim PTX: 13600000 instructions simulated : ctaid=(5,6,0) tid=(8,4,0)
GPGPU-Sim PTX: 13700000 instructions simulated : ctaid=(11,0,0) tid=(13,3,0)
GPGPU-Sim uArch: cycles simulated: 34500  inst.: 13370840 (ipc=387.6) sim_rate=431317 (inst/sec) elapsed = 0:0:00:31 / Sun Feb 28 21:38:07 2016
GPGPU-Sim PTX: 13800000 instructions simulated : ctaid=(11,6,0) tid=(5,2,0)
GPGPU-Sim PTX: 13900000 instructions simulated : ctaid=(11,5,0) tid=(7,5,0)
GPGPU-Sim PTX: 14000000 instructions simulated : ctaid=(7,1,0) tid=(14,4,0)
GPGPU-Sim uArch: cycles simulated: 35000  inst.: 13648861 (ipc=390.0) sim_rate=426526 (inst/sec) elapsed = 0:0:00:32 / Sun Feb 28 21:38:08 2016
GPGPU-Sim PTX: 14100000 instructions simulated : ctaid=(9,4,0) tid=(9,0,0)
GPGPU-Sim PTX: 14200000 instructions simulated : ctaid=(4,6,0) tid=(7,1,0)
GPGPU-Sim PTX: 14300000 instructions simulated : ctaid=(12,0,0) tid=(2,6,0)
GPGPU-Sim PTX: 14400000 instructions simulated : ctaid=(1,6,0) tid=(14,4,0)
GPGPU-Sim PTX: 14500000 instructions simulated : ctaid=(14,4,0) tid=(6,5,0)
GPGPU-Sim PTX: 14600000 instructions simulated : ctaid=(6,2,0) tid=(1,1,0)
GPGPU-Sim uArch: cycles simulated: 36000  inst.: 14245453 (ipc=395.7) sim_rate=431680 (inst/sec) elapsed = 0:0:00:33 / Sun Feb 28 21:38:09 2016
GPGPU-Sim PTX: 14700000 instructions simulated : ctaid=(0,5,0) tid=(0,4,0)
GPGPU-Sim PTX: 14800000 instructions simulated : ctaid=(4,5,0) tid=(6,1,0)
GPGPU-Sim PTX: 14900000 instructions simulated : ctaid=(7,2,0) tid=(4,0,0)
GPGPU-Sim PTX: 15000000 instructions simulated : ctaid=(3,0,0) tid=(10,1,0)
GPGPU-Sim PTX: 15100000 instructions simulated : ctaid=(9,2,0) tid=(8,3,0)
GPGPU-Sim PTX: 15200000 instructions simulated : ctaid=(12,5,0) tid=(8,3,0)
GPGPU-Sim uArch: cycles simulated: 37000  inst.: 14829549 (ipc=400.8) sim_rate=436163 (inst/sec) elapsed = 0:0:00:34 / Sun Feb 28 21:38:10 2016
GPGPU-Sim PTX: 15300000 instructions simulated : ctaid=(10,3,0) tid=(12,2,0)
GPGPU-Sim PTX: 15400000 instructions simulated : ctaid=(15,4,0) tid=(3,2,0)
GPGPU-Sim uArch: cycles simulated: 37500  inst.: 15077149 (ipc=402.1) sim_rate=430775 (inst/sec) elapsed = 0:0:00:35 / Sun Feb 28 21:38:11 2016
GPGPU-Sim PTX: 15500000 instructions simulated : ctaid=(13,5,0) tid=(9,3,0)
GPGPU-Sim uArch: Shader 14 finished CTA #3 (37580,0), 4 CTAs running
GPGPU-Sim uArch: core: 14, cta: 3 initialized @(37581,0)
GPGPU-Sim PTX: 15600000 instructions simulated : ctaid=(9,6,0) tid=(6,7,0)
GPGPU-Sim PTX: 15700000 instructions simulated : ctaid=(3,0,0) tid=(12,1,0)
GPGPU-Sim PTX: 15800000 instructions simulated : ctaid=(9,5,0) tid=(6,5,0)
GPGPU-Sim PTX: 15900000 instructions simulated : ctaid=(6,5,0) tid=(10,7,0)
GPGPU-Sim uArch: cycles simulated: 38500  inst.: 15493854 (ipc=402.4) sim_rate=430384 (inst/sec) elapsed = 0:0:00:36 / Sun Feb 28 21:38:12 2016
GPGPU-Sim PTX: 16000000 instructions simulated : ctaid=(10,5,0) tid=(6,6,0)
GPGPU-Sim PTX: 16100000 instructions simulated : ctaid=(0,7,0) tid=(6,0,0)
GPGPU-Sim PTX: 16200000 instructions simulated : ctaid=(1,5,0) tid=(3,3,0)
GPGPU-Sim PTX: 16300000 instructions simulated : ctaid=(0,5,0) tid=(11,3,0)
GPGPU-Sim uArch: cycles simulated: 39500  inst.: 15961831 (ipc=404.1) sim_rate=431400 (inst/sec) elapsed = 0:0:00:37 / Sun Feb 28 21:38:13 2016
GPGPU-Sim PTX: 16400000 instructions simulated : ctaid=(4,7,0) tid=(9,0,0)
GPGPU-Sim PTX: 16500000 instructions simulated : ctaid=(10,0,0) tid=(7,3,0)
GPGPU-Sim PTX: 16600000 instructions simulated : ctaid=(4,0,0) tid=(14,3,0)
GPGPU-Sim PTX: 16700000 instructions simulated : ctaid=(14,5,0) tid=(11,1,0)
GPGPU-Sim PTX: 16800000 instructions simulated : ctaid=(5,1,0) tid=(5,4,0)
GPGPU-Sim uArch: Shader 13 finished CTA #2 (40334,0), 4 CTAs running
GPGPU-Sim uArch: core: 13, cta: 2 initialized @(40335,0)
GPGPU-Sim uArch: cycles simulated: 40500  inst.: 16440947 (ipc=405.9) sim_rate=432656 (inst/sec) elapsed = 0:0:00:38 / Sun Feb 28 21:38:14 2016
GPGPU-Sim PTX: 16900000 instructions simulated : ctaid=(11,4,0) tid=(15,0,0)
GPGPU-Sim PTX: 17000000 instructions simulated : ctaid=(6,6,0) tid=(2,0,0)
GPGPU-Sim PTX: 17100000 instructions simulated : ctaid=(4,6,0) tid=(4,1,0)
GPGPU-Sim PTX: 17200000 instructions simulated : ctaid=(8,3,0) tid=(3,2,0)
GPGPU-Sim PTX: 17300000 instructions simulated : ctaid=(9,6,0) tid=(6,5,0)
GPGPU-Sim uArch: cycles simulated: 41500  inst.: 16930959 (ipc=408.0) sim_rate=434127 (inst/sec) elapsed = 0:0:00:39 / Sun Feb 28 21:38:15 2016
GPGPU-Sim PTX: 17400000 instructions simulated : ctaid=(14,5,0) tid=(2,3,0)
GPGPU-Sim uArch: Shader 5 finished CTA #1 (41595,0), 4 CTAs running
GPGPU-Sim uArch: core:  5, cta: 1 initialized @(41596,0)
GPGPU-Sim PTX: 17500000 instructions simulated : ctaid=(3,5,0) tid=(6,3,0)
GPGPU-Sim PTX: 17600000 instructions simulated : ctaid=(2,6,0) tid=(3,1,0)
GPGPU-Sim PTX: 17700000 instructions simulated : ctaid=(13,4,0) tid=(13,3,0)
GPGPU-Sim PTX: 17800000 instructions simulated : ctaid=(15,6,0) tid=(1,2,0)
GPGPU-Sim uArch: cycles simulated: 42500  inst.: 17391773 (ipc=409.2) sim_rate=434794 (inst/sec) elapsed = 0:0:00:40 / Sun Feb 28 21:38:16 2016
GPGPU-Sim PTX: 17900000 instructions simulated : ctaid=(2,6,0) tid=(15,6,0)
GPGPU-Sim PTX: 18000000 instructions simulated : ctaid=(15,4,0) tid=(0,1,0)
GPGPU-Sim uArch: Shader 14 finished CTA #0 (42763,0), 4 CTAs running
GPGPU-Sim uArch: core: 14, cta: 0 initialized @(42764,0)
GPGPU-Sim uArch: Shader 14 finished CTA #1 (42814,0), 4 CTAs running
GPGPU-Sim uArch: core: 14, cta: 1 initialized @(42815,0)
GPGPU-Sim PTX: 18100000 instructions simulated : ctaid=(15,5,0) tid=(2,0,0)
GPGPU-Sim uArch: Shader 11 finished CTA #4 (42976,0), 4 CTAs running
GPGPU-Sim uArch: core: 11, cta: 4 initialized @(42977,0)
GPGPU-Sim uArch: Shader 5 finished CTA #3 (42986,0), 4 CTAs running
GPGPU-Sim uArch: core:  5, cta: 3 initialized @(42987,0)
GPGPU-Sim uArch: cycles simulated: 43000  inst.: 17669151 (ipc=410.9) sim_rate=430954 (inst/sec) elapsed = 0:0:00:41 / Sun Feb 28 21:38:17 2016
GPGPU-Sim uArch: Shader 5 finished CTA #4 (43001,0), 4 CTAs running
GPGPU-Sim uArch: core:  5, cta: 4 initialized @(43002,0)
GPGPU-Sim PTX: 18200000 instructions simulated : ctaid=(8,3,0) tid=(0,5,0)
GPGPU-Sim uArch: Shader 6 finished CTA #2 (43276,0), 4 CTAs running
GPGPU-Sim uArch: core:  6, cta: 2 initialized @(43277,0)
GPGPU-Sim PTX: 18300000 instructions simulated : ctaid=(7,3,0) tid=(3,2,0)
GPGPU-Sim PTX: 18400000 instructions simulated : ctaid=(8,1,0) tid=(5,4,0)
GPGPU-Sim uArch: Shader 9 finished CTA #3 (43599,0), 4 CTAs running
GPGPU-Sim uArch: core:  9, cta: 3 initialized @(43600,0)
GPGPU-Sim uArch: Shader 12 finished CTA #3 (43632,0), 4 CTAs running
GPGPU-Sim uArch: core: 12, cta: 3 initialized @(43633,0)
GPGPU-Sim uArch: Shader 6 finished CTA #1 (43762,0), 4 CTAs running
GPGPU-Sim uArch: core:  6, cta: 1 initialized @(43763,0)
GPGPU-Sim uArch: Shader 6 finished CTA #3 (43773,0), 4 CTAs running
GPGPU-Sim uArch: core:  6, cta: 3 initialized @(43774,0)
GPGPU-Sim PTX: 18500000 instructions simulated : ctaid=(10,0,0) tid=(4,2,0)
GPGPU-Sim PTX: 18600000 instructions simulated : ctaid=(9,7,0) tid=(11,3,0)
GPGPU-Sim uArch: cycles simulated: 44000  inst.: 18104401 (ipc=411.5) sim_rate=431057 (inst/sec) elapsed = 0:0:00:42 / Sun Feb 28 21:38:18 2016
GPGPU-Sim uArch: Shader 4 finished CTA #2 (44002,0), 4 CTAs running
GPGPU-Sim uArch: core:  4, cta: 2 initialized @(44003,0)
GPGPU-Sim PTX: 18700000 instructions simulated : ctaid=(7,0,0) tid=(0,5,0)
GPGPU-Sim uArch: Shader 10 finished CTA #4 (44238,0), 4 CTAs running
GPGPU-Sim uArch: core: 10, cta: 4 initialized @(44239,0)
GPGPU-Sim uArch: Shader 4 finished CTA #3 (44243,0), 4 CTAs running
GPGPU-Sim uArch: core:  4, cta: 3 initialized @(44244,0)
GPGPU-Sim uArch: Shader 8 finished CTA #3 (44318,0), 4 CTAs running
GPGPU-Sim uArch: core:  8, cta: 3 initialized @(44319,0)
GPGPU-Sim uArch: Shader 4 finished CTA #0 (44329,0), 4 CTAs running
GPGPU-Sim uArch: core:  4, cta: 0 initialized @(44330,0)
GPGPU-Sim uArch: Shader 10 finished CTA #3 (44405,0), 4 CTAs running
GPGPU-Sim uArch: core: 10, cta: 3 initialized @(44406,0)
[...]
traffic_breakdown_memtocore[CONST_ACC_R] = 2160 {72:30,}
traffic_breakdown_memtocore[GLOBAL_ACC_R] = 513264 {136:3774,}
traffic_breakdown_memtocore[GLOBAL_ACC_W] = 65536 {8:8192,}
traffic_breakdown_memtocore[INST_ACC_R] = 1758888 {136:12933,}
traffic_breakdown_memtocore[LOCAL_ACC_R] = 1006672 {136:7402,}
traffic_breakdown_memtocore[LOCAL_ACC_W] = 356024 {8:44503,}
maxmrqlatency = 616 
maxdqlatency = 0 
maxmflatency = 1827 
averagemflatency = 252 
max_icnt2mem_latency = 1107 
max_icnt2sh_latency = 140621 
mrq_lat_table:5941 	339 	535 	948 	1683 	2280 	2825 	1942 	258 	9 	0 	0 	0 	0 	0 	0 	0 	0 	0 	0 	0 	0 	0 	0 	0 	0 	0 	0 	0 	0 	0 	0 	
dq_lat_table:0 	0 	0 	0 	0 	0 	0 	0 	0 	0 	0 	0 	0 	0 	0 	0 	0 	0 	0 	0 	0 	0 	0 	0 	0 	0 	0 	0 	0 	0 	0 	0 	
mf_lat_table:0 	0 	0 	0 	0 	0 	0 	53416 	5024 	4601 	860 	0 	0 	0 	0 	0 	0 	0 	0 	0 	0 	0 	0 	0 	0 	0 	0 	0 	0 	0 	0 	0 	
icnt2mem_lat_table:0 	0 	0 	20756 	13412 	13435 	29363 	2140 	2331 	433 	4 	0 	0 	0 	0 	0 	0 	0 	0 	0 	0 	0 	0 	0 	
icnt2sh_lat_table:0 	0 	0 	4860 	4186 	1936 	224 	0 	0 	186 	497 	1395 	3086 	2636 	6153 	11355 	23439 	3948 	0 	0 	0 	0 	0 	0 	
mf_lat_pw_table:0 	0 	0 	0 	0 	0 	0 	235 	5 	16 	2 	0 	0 	0 	0 	0 	0 	0 	0 	0 	0 	0 	0 	0 	0 	0 	0 	0 	0 	0 	0 	0 	
maximum concurrent accesses to same row:
dram[0]:        54        56        36        34        26        24        16        20        18        18        12        12        10        12        20        20 
dram[1]:        52        54        34        32        20        22        16        18        16        14        10        10        14        14        16        16 
dram[2]:        62        62        54        56        30        28        18        18        22        20        18        18        14        20        20        18 
dram[3]:        58        60        54        56        24        28        14        20        22        16        14        16        14        16        20        16 
dram[4]:        62        64        56        52        32        28        18        20        22        20        16        16        14        14        20        20 
dram[5]:        58        60        56        48        26        30        16        16        20        16        10        14        16        12        18        14 
maximum service time to same row:
dram[0]:      4682      3123      1359      1752      1729      1416     20011      1758     35550     36440     56729     62094     90602     92791    116800    117541 
dram[1]:      6558      2335      1830      1645      1462      1407     19755      1769     36072     35918     58074     62652     91221     93062    116791    117227 
dram[2]:      8996      4698      2437      2519      1714      1804      2229     19989     36734     35413     61974     57041     92714     90484    117591    116599 
dram[3]:      8489      4605      3431      5151      1572      1651      2119      2111     36710     35924     62387     58994     93464     91818    117771    116650 
dram[4]:     10262     10815      1967      2190      1657      1672     19935      2201     35358     36394     56747     62046     90623     92935    116575    117578 
dram[5]:     10211      4992      2782      2224      1508      1605      2049      2083     35862     36510     58561     62563     91872     93582    116586    118296 
average row accesses per activate:
dram[0]:  9.500000 10.153846  7.111111  7.111111  4.875000  4.529412  5.500000  5.555555  7.840000  6.483871  7.592593  8.291667  6.451613  8.080000  8.550000  8.476191 
dram[1]:  7.052631 12.000000  6.400000  6.400000  5.166667  4.222222  4.651163  6.387097  6.548387  6.387097  8.040000  7.206897  6.151515  6.645161  6.692307  6.407407 
dram[2]: 12.090909 26.400000 16.000000 12.800000  5.961538  5.225806  5.050000  6.343750  8.652174  7.222222  9.523809  7.555555  6.931035  8.739130 11.187500  8.142858 
dram[3]: 10.153846 18.857143 12.800000 16.000000  4.838710  5.096774  5.472222  5.771429  8.608696  7.518518  8.280000  6.483871  7.206897  7.481482  8.750000  6.920000 
dram[4]: 14.666667 44.000000 16.000000 10.666667  5.066667  5.161290  5.447369  5.941176  9.285714  7.920000  8.200000  7.444445 10.578947  8.080000  7.478261  7.040000 
dram[5]: 14.666667 16.500000 12.800000  9.142858  4.750000  5.064516  4.878049  5.882353  9.619047  6.862069  6.965517  7.172414  7.592593  9.666667  9.105263  6.960000 
average row locality = 16760/2312 = 7.249135
number of total memory accesses made:
dram[0]:         0         0         0         0         0         0         0         0         0         0         0         0         0         0         0         0 
dram[1]:         0         0         0         0         0         0         0         0         0         0         0         0         0         0         0         0 
dram[2]:         0         0         0         0         0         0         0         0         0         0         0         0         0         0         0         0 
dram[3]:         0         0         0         0         0         0         0         0         0         0         0         0         0         0         0         0 
dram[4]:         0         0         0         0         0         0         0         0         0         0         0         0         0         0         0         0 
dram[5]:         0         0         0         0         0         0         0         0         0         0         0         0         0         0         0         0 
total accesses: 0
min_bank_accesses = 0!
min_chip_accesses = 0!
number of total read accesses:
dram[0]:        69        68        64        64        74        74        96        96        96        96        96        96        96        96        84        84 
dram[1]:        70        68        64        64        74        74        96        96        96        96        96        96        96        96        84        84 
dram[2]:        69        68        64        64        74        76        96        96        96        96        96        96        96        96        84        84 
dram[3]:        68        68        64        64        74        76        96        96        96        96        96        96        96        96        84        84 
dram[4]:        68        68        64        64        74        76        96        96        96        96        96        96        96        96        84        84 
dram[5]:        68        68        64        64        74        76        96        96        96        96        96        96        96        96        84        84 
total reads: 8100
bank skew: 96/64 = 1.50
chip skew: 1351/1349 = 1.00
number of total write accesses:
dram[0]:        64        64        64        64        82        80       113       104       100       105       109       103       104       106        87        94 
dram[1]:        64        64        64        64        81        78       104       102       107       102       105       113       107       110        90        89 
dram[2]:        64        64        64        64        81        86       106       107       103        99       104       108       105       105        95        87 
dram[3]:        64        64        64        64        76        82       101       106       102       107       111       105       113       106        91        89 
dram[4]:        64        64        64        64        78        84       111       106        99       102       109       105       105       106        88        92 
dram[5]:        64        64        64        64        78        81       104       104       106       103       106       112       109       107        89        90 
total reads: 8660
bank skew: 113/64 = 1.77
chip skew: 1445/1441 = 1.00
average mf latency per bank:
dram[0]:       1267      1042      1242      1169      1124      1062      1030       972       992       935       879       949       946       902       912       854
dram[1]:       1240      1028      1144      1112      1015       996       952       934       857       865       843       818       814       798       829       827
dram[2]:       1163      1213      1258      1272      1143      1081       998      1043       974       938       915       872       910       902       881       872
dram[3]:       1050      1205      1246      1220      1028      1005       936       950       874       848       807       833       808       814       841       796
dram[4]:       1187      1062      1253      1282      1130      1106      1003      1003       988       960       883       929       903       941       930       890
dram[5]:       1071      1031      1198      1136       976       990       897       909       872       846       829       803       794       826       824       817
maximum mf latency per bank:
dram[0]:       1293      1002      1676      1197      1363      1246      1436      1223      1354      1238      1300      1170      1424      1291      1230      1128
dram[1]:        914      1006      1318      1232      1097      1194      1045      1048      1033       997      1067      1015       960       939       997      1089
dram[2]:       1316      1333      1735      1723      1548      1584      1584      1442      1432      1494      1290      1221      1328      1442      1382      1319
dram[3]:       1138      1370      1537      1697      1341      1619      1117      1455      1075      1072       991      1106      1029      1192      1153      1087
dram[4]:       1393      1510      1827      1821      1698      1698      1689      1761      1615      1426      1322      1302      1365      1197      1231      1358
dram[5]:       1374      1347      1776      1558      1604      1693      1447      1507      1206      1027      1112      1036      1117      1110      1102      1070

Number of Memory Banks Accessed per Memory Operation per Warp (from 0):
0	0	0	0	0	0	0	0	0	0	0	0	0	0	0	0	0	0	0	0	0	0	0	0	0	0	0	0	0	0	0	0	0	0	0	0	0	0	0	0	0	0	0	0	0	0	0	0	0	0	0	0	0	0	0	0	0	0	0	0	0	0	0	0	0	0	0	0	0	0	0	0	0	0	0	0	0	0	0	0	0	0	0	0	0	0	0	0	0	0	0	0	0	0	0	0	
Average # of Memory Banks Accessed per Memory Operation per Warp=-nan

position of mrq chosen
0	0	0	0	0	0	0	0	0	0	0	0	0	0	0	0	

average position of mrq chosen = -nan
Memory Partition 0: 
Cache L2_bank_000:
MSHR contents

Cache L2_bank_001:
MSHR contents

In Dram Latency Queue (total = 0): 
DRAM[0]: 16 bks, busW=4 BL=8 CL=12, tRRD=2 tCCD=6, tRCD=12 tRAS=28 tRP=12 tRC=40
n_cmd=185620 n_nop=179681 n_act=407 n_pre=391 n_req=2792 n_rd=2698 n_write=2443 bw_util=0.05539
n_activity=20759 dram_eff=0.4953
bk0: 138a 180750i bk1: 136a 180980i bk2: 128a 180088i bk3: 128a 180089i bk4: 148a 178098i bk5: 148a 178520i bk6: 192a 176740i bk7: 192a 177012i bk8: 192a 178954i bk9: 192a 178581i bk10: 192a 178421i bk11: 192a 178908i bk12: 192a 178437i bk13: 192a 178645i bk14: 168a 179551i bk15: 168a 179865i 
dram_util_bins: 0 0 0 0 0 0 0 0 0 0
dram_eff_bins: 0 0 0 0 0 0 0 0 0 0
mrqq: max=16 avg=1.03353
Memory Partition 1: 
Cache L2_bank_002:
MSHR contents

Cache L2_bank_003:
MSHR contents

In Dram Latency Queue (total = 0): 
DRAM[1]: 16 bks, busW=4 BL=8 CL=12, tRRD=2 tCCD=6, tRCD=12 tRAS=28 tRP=12 tRC=40
n_cmd=185620 n_nop=179606 n_act=443 n_pre=427 n_req=2794 n_rd=2700 n_write=2444 bw_util=0.05543
n_activity=21276 dram_eff=0.4835
bk0: 140a 180833i bk1: 136a 181230i bk2: 128a 179891i bk3: 128a 180101i bk4: 148a 178512i bk5: 148a 178073i bk6: 192a 176926i bk7: 192a 177559i bk8: 192a 178741i bk9: 192a 178706i bk10: 192a 178391i bk11: 192a 178685i bk12: 192a 178434i bk13: 192a 178523i bk14: 168a 179728i bk15: 168a 179775i 
dram_util_bins: 0 0 0 0 0 0 0 0 0 0
dram_eff_bins: 0 0 0 0 0 0 0 0 0 0
mrqq: max=16 avg=0.92796
Memory Partition 2: 
Cache L2_bank_004:
MSHR contents

Cache L2_bank_005:
MSHR contents

In Dram Latency Queue (total = 0): 
DRAM[2]: 16 bks, busW=4 BL=8 CL=12, tRRD=2 tCCD=6, tRCD=12 tRAS=28 tRP=12 tRC=40
n_cmd=185620 n_nop=179792 n_act=350 n_pre=334 n_req=2793 n_rd=2702 n_write=2442 bw_util=0.05543
n_activity=20977 dram_eff=0.4904
bk0: 138a 180835i bk1: 136a 181317i bk2: 128a 180660i bk3: 128a 180714i bk4: 148a 178896i bk5: 152a 178261i bk6: 192a 176867i bk7: 192a 177184i bk8: 192a 179344i bk9: 192a 178860i bk10: 192a 178402i bk11: 192a 178809i bk12: 192a 178324i bk13: 192a 178333i bk14: 168a 179495i bk15: 168a 179545i 
dram_util_bins: 0 0 0 0 0 0 0 0 0 0
dram_eff_bins: 0 0 0 0 0 0 0 0 0 0
mrqq: max=16 avg=1.0668
Memory Partition 3: 
Cache L2_bank_006:
MSHR contents

Cache L2_bank_007:
MSHR contents

In Dram Latency Queue (total = 0): 
DRAM[3]: 16 bks, busW=4 BL=8 CL=12, tRRD=2 tCCD=6, tRCD=12 tRAS=28 tRP=12 tRC=40
n_cmd=185620 n_nop=179735 n_act=378 n_pre=362 n_req=2795 n_rd=2700 n_write=2445 bw_util=0.05544
n_activity=21340 dram_eff=0.4822
bk0: 136a 180958i bk1: 136a 180989i bk2: 128a 180800i bk3: 128a 180684i bk4: 148a 178862i bk5: 152a 178825i bk6: 192a 177916i bk7: 192a 177401i bk8: 192a 179194i bk9: 192a 178881i bk10: 192a 179184i bk11: 192a 178952i bk12: 192a 178851i bk13: 192a 178772i bk14: 168a 179705i bk15: 168a 179778i 
dram_util_bins: 0 0 0 0 0 0 0 0 0 0
dram_eff_bins: 0 0 0 0 0 0 0 0 0 0
mrqq: max=16 avg=0.918473
Memory Partition 4: 
Cache L2_bank_008:
MSHR contents

Cache L2_bank_009:
MSHR contents

In Dram Latency Queue (total = 0): 
DRAM[4]: 16 bks, busW=4 BL=8 CL=12, tRRD=2 tCCD=6, tRCD=12 tRAS=28 tRP=12 tRC=40
n_cmd=185620 n_nop=179785 n_act=355 n_pre=339 n_req=2791 n_rd=2700 n_write=2441 bw_util=0.05539
n_activity=20815 dram_eff=0.494
bk0: 136a 181112i bk1: 136a 181352i bk2: 128a 180179i bk3: 128a 180344i bk4: 148a 178737i bk5: 152a 177984i bk6: 192a 176822i bk7: 192a 176674i bk8: 192a 178412i bk9: 192a 178852i bk10: 192a 178935i bk11: 192a 178649i bk12: 192a 177994i bk13: 192a 178796i bk14: 168a 179806i bk15: 168a 179449i 
dram_util_bins: 0 0 0 0 0 0 0 0 0 0
dram_eff_bins: 0 0 0 0 0 0 0 0 0 0
mrqq: max=16 avg=1.05396
Memory Partition 5: 
Cache L2_bank_010:
MSHR contents

Cache L2_bank_011:
MSHR contents

In Dram Latency Queue (total = 0): 
DRAM[5]: 16 bks, busW=4 BL=8 CL=12, tRRD=2 tCCD=6, tRCD=12 tRAS=28 tRP=12 tRC=40
n_cmd=185620 n_nop=179733 n_act=379 n_pre=363 n_req=2795 n_rd=2700 n_write=2445 bw_util=0.05544
n_activity=21227 dram_eff=0.4848
bk0: 136a 181082i bk1: 136a 180914i bk2: 128a 180253i bk3: 128a 180314i bk4: 148a 178974i bk5: 152a 178184i bk6: 192a 177393i bk7: 192a 177811i bk8: 192a 179376i bk9: 192a 179257i bk10: 192a 179040i bk11: 192a 179005i bk12: 192a 179081i bk13: 192a 178287i bk14: 168a 179631i bk15: 168a 179943i 
dram_util_bins: 0 0 0 0 0 0 0 0 0 0
dram_eff_bins: 0 0 0 0 0 0 0 0 0 0
mrqq: max=16 avg=0.913301

========= L2 cache stats =========
L2_cache_bank[0]: Access = 6850, Miss = 675, Miss_rate = 0.099, Pending_hits = 68, Reservation_fails = 1000
L2_cache_bank[1]: Access = 6935, Miss = 674, Miss_rate = 0.097, Pending_hits = 62, Reservation_fails = 613
L2_cache_bank[2]: Access = 6818, Miss = 676, Miss_rate = 0.099, Pending_hits = 70, Reservation_fails = 495
L2_cache_bank[3]: Access = 6740, Miss = 674, Miss_rate = 0.100, Pending_hits = 64, Reservation_fails = 355
L2_cache_bank[4]: Access = 6607, Miss = 675, Miss_rate = 0.102, Pending_hits = 67, Reservation_fails = 508
L2_cache_bank[5]: Access = 6809, Miss = 676, Miss_rate = 0.099, Pending_hits = 60, Reservation_fails = 358
L2_cache_bank[6]: Access = 6879, Miss = 674, Miss_rate = 0.098, Pending_hits = 64, Reservation_fails = 518
L2_cache_bank[7]: Access = 7038, Miss = 676, Miss_rate = 0.096, Pending_hits = 63, Reservation_fails = 317
L2_cache_bank[8]: Access = 6935, Miss = 674, Miss_rate = 0.097, Pending_hits = 60, Reservation_fails = 785
L2_cache_bank[9]: Access = 6666, Miss = 676, Miss_rate = 0.101, Pending_hits = 60, Reservation_fails = 410
L2_cache_bank[10]: Access = 6898, Miss = 674, Miss_rate = 0.098, Pending_hits = 62, Reservation_fails = 595
L2_cache_bank[11]: Access = 6699, Miss = 676, Miss_rate = 0.101, Pending_hits = 65, Reservation_fails = 364
L2_total_cache_accesses = 81874
L2_total_cache_misses = 8100
L2_total_cache_miss_rate = 0.0989
L2_total_cache_pending_hits = 765
L2_total_cache_reservation_fails = 6318
L2_total_cache_breakdown:
	L2_cache_stats_breakdown[GLOBAL_ACC_R][HIT] = 3766
	L2_cache_stats_breakdown[GLOBAL_ACC_R][HIT_RESERVED] = 6
	L2_cache_stats_breakdown[GLOBAL_ACC_R][MISS] = 2
	L2_cache_stats_breakdown[GLOBAL_ACC_R][RESERVATION_FAIL] = 7
	L2_cache_stats_breakdown[LOCAL_ACC_R][HIT] = 7402
	L2_cache_stats_breakdown[CONST_ACC_R][HIT] = 22
	L2_cache_stats_breakdown[CONST_ACC_R][HIT_RESERVED] = 6
	L2_cache_stats_breakdown[CONST_ACC_R][MISS] = 2
	L2_cache_stats_breakdown[CONST_ACC_R][RESERVATION_FAIL] = 353
	L2_cache_stats_breakdown[GLOBAL_ACC_W][HIT] = 5532
	L2_cache_stats_breakdown[GLOBAL_ACC_W][HIT_RESERVED] = 612
	L2_cache_stats_breakdown[GLOBAL_ACC_W][MISS] = 2048
	L2_cache_stats_breakdown[GLOBAL_ACC_W][RESERVATION_FAIL] = 94
	L2_cache_stats_breakdown[LOCAL_ACC_W][HIT] = 38503
	L2_cache_stats_breakdown[LOCAL_ACC_W][MISS] = 6000
	L2_cache_stats_breakdown[LOCAL_ACC_W][RESERVATION_FAIL] = 541
	L2_cache_stats_breakdown[L1_WRBK_ACC][HIT] = 5040
	L2_cache_stats_breakdown[INST_ACC_R][HIT] = 12744
	L2_cache_stats_breakdown[INST_ACC_R][HIT_RESERVED] = 141
	L2_cache_stats_breakdown[INST_ACC_R][MISS] = 48
	L2_cache_stats_breakdown[INST_ACC_R][RESERVATION_FAIL] = 5323
L2_cache_data_port_util = 0.165
L2_cache_fill_port_util = 0.019

icnt_total_pkts_mem_to_simt=173330
icnt_total_pkts_simt_to_mem=293093
LD_mem_lat_dist  0 0 0 0 0 0 0 0 0 0 0 0 0 0 0 0 0 0 0 0 0 0 0 0 0 0 0
ST_mem_lat_dist  0 0 0 0 0 0 0 0 0 0 0 0 0 0 0 0 0 0 0 0 0 0 0 0 0 0 0
----------------------------Interconnect-DETAILS--------------------------------
Class 0:
Packet latency average = 17.2399
	minimum = 6
	maximum = 630
Network latency average = 13.5284
	minimum = 6
	maximum = 582
Slowest packet = 1359
Flit latency average = 12.6102
	minimum = 6
	maximum = 578
Slowest flit = 5056
Fragmentation average = 0.107928
	minimum = 0
	maximum = 553
Injected packet rate average = 0.0418005
	minimum = 0.0350372 (at node 1)
	maximum = 0.046849 (at node 22)
Accepted packet rate average = 0.0418005
	minimum = 0.0329038 (at node 1)
	maximum = 0.0500491 (at node 22)
Injected flit rate average = 0.122847
	minimum = 0.0965852 (at node 19)
	maximum = 0.149088 (at node 0)
Accepted flit rate average= 0.122847
	minimum = 0.0733242 (at node 1)
	maximum = 0.176743 (at node 17)
Injected packet length average = 2.93888
Accepted packet length average = 2.93888
Total in-flight flits = 0 (0 measured)
====== Overall Traffic Statistics ======
====== Traffic class 0 ======
Packet latency average = 17.2399 (1 samples)
	minimum = 6 (1 samples)
	maximum = 630 (1 samples)
Network latency average = 13.5284 (1 samples)
	minimum = 6 (1 samples)
	maximum = 582 (1 samples)
Flit latency average = 12.6102 (1 samples)
	minimum = 6 (1 samples)
	maximum = 578 (1 samples)
Fragmentation average = 0.107928 (1 samples)
	minimum = 0 (1 samples)
	maximum = 553 (1 samples)
Injected packet rate average = 0.0418005 (1 samples)
	minimum = 0.0350372 (1 samples)
	maximum = 0.046849 (1 samples)
Accepted packet rate average = 0.0418005 (1 samples)
	minimum = 0.0329038 (1 samples)
	maximum = 0.0500491 (1 samples)
Injected flit rate average = 0.122847 (1 samples)
	minimum = 0.0965852 (1 samples)
	maximum = 0.149088 (1 samples)
Accepted flit rate average = 0.122847 (1 samples)
	minimum = 0.0733242 (1 samples)
	maximum = 0.176743 (1 samples)
Injected packet size average = 2.93888 (1 samples)
Accepted packet size average = 2.93888 (1 samples)
Hops average = 1 (1 samples)
----------------------------END-of-Interconnect-DETAILS-------------------------


gpgpu_simulation_time = 0 days, 0 hrs, 2 min, 53 sec (173 sec)
gpgpu_simulation_rate = 362327 (inst/sec)
gpgpu_simulation_rate = 812 (cycle/sec)
GPGPU-Sim API: Stream Manager State
GPGPU-Sim: detected inactive GPU simulation thread

checksum=75ef40cb5b8e
Kernel Time: 171891.656250 
