

        *** GPGPU-Sim Simulator Version 3.2.2  [build 0] ***


GPGPU-Sim PTX: simulation mode 0 (can change with PTX_SIM_MODE_FUNC environment variable:
               1=functional simulation only, 0=detailed performance simulator)
GPGPU-Sim: Configuration options:

-network_mode                           1 # Interconnection network mode
-inter_config_file   config_fermi_islip.icnt # Interconnection network config file
-gpgpu_ptx_use_cuobjdump                    1 # Use cuobjdump to extract ptx and sass from binaries
-gpgpu_experimental_lib_support                    0 # Try to extract code from cuda libraries [Broken because of unknown cudaGetExportTable]
-gpgpu_ptx_convert_to_ptxplus                    0 # Convert SASS (native ISA) to ptxplus and run ptxplus
-gpgpu_ptx_force_max_capability                   20 # Force maximum compute capability
-gpgpu_ptx_inst_debug_to_file                    0 # Dump executed instructions' debug information to file
-gpgpu_ptx_inst_debug_file       inst_debug.txt # Executed instructions' debug output file
-gpgpu_ptx_inst_debug_thread_uid                    1 # Thread UID for executed instructions' debug output
-gpgpu_simd_model                       1 # 1 = post-dominator
-gpgpu_shader_core_pipeline              1536:32 # shader core pipeline config, i.e., {<nthread>:<warpsize>}
-gpgpu_tex_cache:l1  4:128:24,L:R:m:N:L,F:128:4,128:2 # per-shader L1 texture cache  (READ-ONLY) config  {<nsets>:<bsize>:<assoc>,<rep>:<wr>:<alloc>:<wr_alloc>,<mshr>:<N>:<merge>,<mq>:<rf>}
-gpgpu_const_cache:l1 64:64:2,L:R:f:N:L,A:2:32,4 # per-shader L1 constant memory cache  (READ-ONLY) config  {<nsets>:<bsize>:<assoc>,<rep>:<wr>:<alloc>:<wr_alloc>,<mshr>:<N>:<merge>,<mq>} 
-gpgpu_cache:il1     4:128:4,L:R:f:N:L,A:2:32,4 # shader L1 instruction cache config  {<nsets>:<bsize>:<assoc>,<rep>:<wr>:<alloc>:<wr_alloc>,<mshr>:<N>:<merge>,<mq>} 
-gpgpu_cache:dl1     32:128:4,L:L:m:N:H,A:32:8,8 # per-shader L1 data cache config  {<nsets>:<bsize>:<assoc>,<rep>:<wr>:<alloc>:<wr_alloc>,<mshr>:<N>:<merge>,<mq> | none}
-gpgpu_cache:dl1PrefL1                 none # per-shader L1 data cache config  {<nsets>:<bsize>:<assoc>,<rep>:<wr>:<alloc>:<wr_alloc>,<mshr>:<N>:<merge>,<mq> | none}
-gpgpu_cache:dl1PreShared                 none # per-shader L1 data cache config  {<nsets>:<bsize>:<assoc>,<rep>:<wr>:<alloc>:<wr_alloc>,<mshr>:<N>:<merge>,<mq> | none}
-gmem_skip_L1D                          0 # global memory access skip L1D cache (implements -Xptxas -dlcm=cg, default=no skip)
-gpgpu_perfect_mem                      0 # enable perfect memory mode (no cache miss)
-n_regfile_gating_group                    4 # group of lanes that should be read/written together)
-gpgpu_clock_gated_reg_file                    0 # enable clock gated reg file for power calculations
-gpgpu_clock_gated_lanes                    0 # enable clock gated lanes for power calculations
-gpgpu_shader_registers                32768 # Number of registers per shader core. Limits number of concurrent CTAs. (default 8192)
-gpgpu_shader_cta                       8 # Maximum number of concurrent CTAs in shader (default 8)
-gpgpu_num_cta_barriers                   16 # Maximum number of named barriers per CTA (default 16)
-gpgpu_n_clusters                      15 # number of processing clusters
-gpgpu_n_cores_per_cluster                    1 # number of simd cores per cluster
-gpgpu_n_cluster_ejection_buffer_size                    8 # number of packets in ejection buffer
-gpgpu_n_ldst_response_buffer_size                    2 # number of response packets in ld/st unit ejection buffer
-gpgpu_shmem_size                   16384 # Size of shared memory per shader core (default 16kB)
-gpgpu_shmem_size                   49152 # Size of shared memory per shader core (default 16kB)
-gpgpu_shmem_size_PrefL1                16384 # Size of shared memory per shader core (default 16kB)
-gpgpu_shmem_size_PrefShared                16384 # Size of shared memory per shader core (default 16kB)
-gpgpu_shmem_num_banks                   32 # Number of banks in the shared memory in each shader core (default 16)
-gpgpu_shmem_limited_broadcast                    0 # Limit shared memory to do one broadcast per cycle (default on)
-gpgpu_shmem_warp_parts                    1 # Number of portions a warp is divided into for shared memory bank conflict check 
-gpgpu_warpdistro_shader                   -1 # Specify which shader core to collect the warp size distribution from
-gpgpu_warp_issue_shader                    0 # Specify which shader core to collect the warp issue distribution from
-gpgpu_local_mem_map                    1 # Mapping from local memory space address to simulated GPU physical address space (default = enabled)
-gpgpu_num_reg_banks                   16 # Number of register banks (default = 8)
-gpgpu_reg_bank_use_warp_id                    0 # Use warp ID in mapping registers to banks (default = off)
-gpgpu_operand_collector_num_units_sp                    6 # number of collector units (default = 4)
-gpgpu_operand_collector_num_units_sfu                    8 # number of collector units (default = 4)
-gpgpu_operand_collector_num_units_mem                    2 # number of collector units (default = 2)
-gpgpu_operand_collector_num_units_gen                    0 # number of collector units (default = 0)
-gpgpu_operand_collector_num_in_ports_sp                    2 # number of collector unit in ports (default = 1)
-gpgpu_operand_collector_num_in_ports_sfu                    1 # number of collector unit in ports (default = 1)
-gpgpu_operand_collector_num_in_ports_mem                    1 # number of collector unit in ports (default = 1)
-gpgpu_operand_collector_num_in_ports_gen                    0 # number of collector unit in ports (default = 0)
-gpgpu_operand_collector_num_out_ports_sp                    2 # number of collector unit in ports (default = 1)
-gpgpu_operand_collector_num_out_ports_sfu                    1 # number of collector unit in ports (default = 1)
-gpgpu_operand_collector_num_out_ports_mem                    1 # number of collector unit in ports (default = 1)
-gpgpu_operand_collector_num_out_ports_gen                    0 # number of collector unit in ports (default = 0)
-gpgpu_coalesce_arch                   13 # Coalescing arch (default = 13, anything else is off for now)
-gpgpu_num_sched_per_core                    2 # Number of warp schedulers per core
-gpgpu_max_insn_issue_per_warp                    1 # Max number of instructions that can be issued per warp in one cycle by scheduler
-gpgpu_simt_core_sim_order                    1 # Select the simulation order of cores in a cluster (0=Fix, 1=Round-Robin)
-gpgpu_pipeline_widths        2,1,1,2,1,1,2 # Pipeline widths ID_OC_SP,ID_OC_SFU,ID_OC_MEM,OC_EX_SP,OC_EX_SFU,OC_EX_MEM,EX_WB
-gpgpu_num_sp_units                     2 # Number of SP units (default=1)
-gpgpu_num_sfu_units                    1 # Number of SF units (default=1)
-gpgpu_num_mem_units                    1 # Number if ldst units (default=1) WARNING: not hooked up to anything
-gpgpu_scheduler                      gto # Scheduler configuration: < lrr | gto | two_level_active > If two_level_active:<num_active_warps>:<inner_prioritization>:<outer_prioritization>For complete list of prioritization values see shader.h enum scheduler_prioritization_typeDefault: gto
-gpgpu_dram_scheduler                    1 # 0 = fifo, 1 = FR-FCFS (defaul)
-gpgpu_dram_partition_queues              8:8:8:8 # i2$:$2d:d2$:$2i
-l2_ideal                               0 # Use a ideal L2 cache that always hit
-gpgpu_cache:dl2     64:256:8,L:B:m:W:L,A:32:4,4:0,32 # unified banked L2 data cache config  {<nsets>:<bsize>:<assoc>,<rep>:<wr>:<alloc>:<wr_alloc>,<mshr>:<N>:<merge>,<mq>}
-gpgpu_cache:dl2_texture_only                    0 # L2 cache used for texture only
-gpgpu_n_mem                            6 # number of memory modules (e.g. memory controllers) in gpu
-gpgpu_n_sub_partition_per_mchannel                    2 # number of memory subpartition in each memory module
-gpgpu_n_mem_per_ctrlr                    2 # number of memory chips per memory controller
-gpgpu_memlatency_stat                   14 # track and display latency statistics 0x2 enables MC, 0x4 enables queue logs
-gpgpu_frfcfs_dram_sched_queue_size                   16 # 0 = unlimited (default); # entries per chip
-gpgpu_dram_return_queue_size                  116 # 0 = unlimited (default); # entries per chip
-gpgpu_dram_buswidth                    4 # default = 4 bytes (8 bytes per cycle at DDR)
-gpgpu_dram_burst_length                    8 # Burst length of each DRAM request (default = 4 data bus cycle)
-dram_data_command_freq_ratio                    4 # Frequency ratio between DRAM data bus and command bus (default = 2 times, i.e. DDR)
-gpgpu_dram_timing_opt nbk=16:CCD=2:RRD=6:RCD=12:RAS=28:RP=12:RC=40: CL=12:WL=4:CDLR=5:WR=12:nbkgrp=4:CCDL=3:RTPL=2 # DRAM timing parameters = {nbk:tCCD:tRRD:tRCD:tRAS:tRP:tRC:CL:WL:tCDLR:tWR:nbkgrp:tCCDL:tRTPL}
-rop_latency                          120 # ROP queue latency (default 85)
-dram_latency                         100 # DRAM latency (default 30)
-gpgpu_mem_addr_mapping dramid@8;00000000.00000000.00000000.00000000.0000RRRR.RRRRRRRR.BBBCCCCB.CCSSSSSS # mapping memory address to dram model {dramid@<start bit>;<memory address map>}
-gpgpu_mem_addr_test                    0 # run sweep test to check address mapping for aliased address
-gpgpu_mem_address_mask                    1 # 0 = old addressing mask, 1 = new addressing mask, 2 = new add. mask + flipped bank sel and chip sel bits
-gpuwattch_xml_file  gpuwattch_gtx480.xml # GPUWattch XML file
-power_simulation_enabled                    0 # Turn on power simulator (1=On, 0=Off)
-power_per_cycle_dump                    0 # Dump detailed power output each cycle
-power_trace_enabled                    0 # produce a file for the power trace (1=On, 0=Off)
-power_trace_zlevel                     6 # Compression level of the power trace output log (0=no comp, 9=highest)
-steady_power_levels_enabled                    0 # produce a file for the steady power levels (1=On, 0=Off)
-steady_state_definition                  8:4 # allowed deviation:number of samples
-gpgpu_max_cycle                        0 # terminates gpu simulation early (0 = no limit)
-gpgpu_max_insn                         0 # terminates gpu simulation early (0 = no limit)
-gpgpu_max_cta                          0 # terminates gpu simulation early (0 = no limit)
-gpgpu_runtime_stat                   500 # display runtime statistics such as dram utilization {<freq>:<flag>}
-liveness_message_freq                    1 # Minimum number of seconds between simulation liveness messages (0 = always print)
-gpgpu_flush_l1_cache                    0 # Flush L1 cache at the end of each kernel call
-gpgpu_flush_l2_cache                    0 # Flush L2 cache at the end of each kernel call
-gpgpu_deadlock_detect                    1 # Stop the simulation at deadlock (1=on (default), 0=off)
-gpgpu_ptx_instruction_classification                    0 # if enabled will classify ptx instruction types per kernel (Max 255 kernels now)
-gpgpu_ptx_sim_mode                     0 # Select between Performance (default) or Functional simulation (1)
-gpgpu_clock_domains 700.0:700.0:700.0:924.0 # Clock Domain Frequencies in MhZ {<Core Clock>:<ICNT Clock>:<L2 Clock>:<DRAM Clock>}
-gpgpu_max_concurrent_kernel                    8 # maximum kernels that can run concurrently on GPU
-gpgpu_cflog_interval                    0 # Interval between each snapshot in control flow logger
-visualizer_enabled                     0 # Turn on visualizer output (1=On, 0=Off)
-visualizer_outputfile                 NULL # Specifies the output log file for visualizer
-visualizer_zlevel                      6 # Compression level of the visualizer output log (0=no comp, 9=highest)
-trace_enabled                          0 # Turn on traces
-trace_components                    none # comma seperated list of traces to enable. Complete list found in trace_streams.tup. Default none
-trace_sampling_core                    0 # The core which is printed using CORE_DPRINTF. Default 0
-trace_sampling_memory_partition                   -1 # The memory partition which is printed using MEMPART_DPRINTF. Default -1 (i.e. all)
-enable_ptx_file_line_stats                    1 # Turn on PTX source line statistic profiling. (1 = On)
-ptx_line_stats_filename gpgpu_inst_stats.txt # Output file for PTX source line statistics.
-save_embedded_ptx                      0 # saves ptx files embedded in binary as <n>.ptx
-keep                                   0 # keep intermediate files created by GPGPU-Sim when interfacing with external programs
-gpgpu_ptx_save_converted_ptxplus                    0 # Saved converted ptxplus to a file
-ptx_opcode_latency_int         4,13,4,5,145 # Opcode latencies for integers <ADD,MAX,MUL,MAD,DIV>Default 1,1,19,25,145
-ptx_opcode_latency_fp          4,13,4,5,39 # Opcode latencies for single precision floating points <ADD,MAX,MUL,MAD,DIV>Default 1,1,1,1,30
-ptx_opcode_latency_dp         8,19,8,8,330 # Opcode latencies for double precision floating points <ADD,MAX,MUL,MAD,DIV>Default 8,8,8,8,335
-ptx_opcode_initiation_int            1,2,2,1,8 # Opcode initiation intervals for integers <ADD,MAX,MUL,MAD,DIV>Default 1,1,4,4,32
-ptx_opcode_initiation_fp            1,2,1,1,4 # Opcode initiation intervals for single precision floating points <ADD,MAX,MUL,MAD,DIV>Default 1,1,1,1,5
-ptx_opcode_initiation_dp         8,16,8,8,130 # Opcode initiation intervals for double precision floating points <ADD,MAX,MUL,MAD,DIV>Default 8,8,8,8,130
DRAM Timing Options:
nbk                                    16 # number of banks
CCD                                     2 # column to column delay
RRD                                     6 # minimal delay between activation of rows in different banks
RCD                                    12 # row to column delay
RAS                                    28 # time needed to activate row
RP                                     12 # time needed to precharge (deactivate) row
RC                                     40 # row cycle time
CDLR                                    5 # switching from write to read (changes tWTR)
WR                                     12 # last data-in to row precharge
CL                                     12 # CAS latency
WL                                      4 # Write latency
nbkgrp                                  4 # number of bank groups
CCDL                                    3 # column to column delay between accesses to different bank groups
RTPL                                    2 # read to precharge delay between accesses to different bank groups
Total number of memory sub partition = 12
addr_dec_mask[CHIP]  = 0000000000000000 	high:64 low:0
addr_dec_mask[BK]    = 000000000000e100 	high:16 low:8
addr_dec_mask[ROW]   = 000000000fff0000 	high:28 low:16
addr_dec_mask[COL]   = 0000000000001eff 	high:13 low:0
addr_dec_mask[BURST] = 000000000000003f 	high:6 low:0
sub_partition_id_mask = 0000000000000100
GPGPU-Sim uArch: clock freqs: 700000000.000000:700000000.000000:700000000.000000:924000000.000000
GPGPU-Sim uArch: clock periods: 0.00000000142857142857:0.00000000142857142857:0.00000000142857142857:0.00000000108225108225
*** Initializing Memory Statistics ***
GPGPU-Sim uArch: interconnect node map (shaderID+MemID to icntID)
GPGPU-Sim uArch: Memory nodes ID start from index: 15
GPGPU-Sim uArch:    0   1   2   3   4
GPGPU-Sim uArch:    5   6   7   8   9
GPGPU-Sim uArch:   10  11  12  13  14
GPGPU-Sim uArch:   15  16  17  18  19
GPGPU-Sim uArch:   20  21  22  23  24
GPGPU-Sim uArch:   25  26
GPGPU-Sim uArch: interconnect node reverse map (icntID to shaderID+MemID)
GPGPU-Sim uArch: Memory nodes start from ID: 15
GPGPU-Sim uArch:    0   1   2   3   4
GPGPU-Sim uArch:    5   6   7   8   9
GPGPU-Sim uArch:   10  11  12  13  14
GPGPU-Sim uArch:   15  16  17  18  19
GPGPU-Sim uArch:   20  21  22  23  24
GPGPU-Sim uArch:   25  26
e389dacb331e7fcddf4abf4a164344f1  /sciclone/data20/adwait/applications/benchmarks/CUDA/BlackScholes/gpgpu_ptx_sim__BlackScholes
GPGPU-Sim uArch: performance model initialization complete.
GPGPU-Sim PTX: __cudaRegisterFatBinary, fat_cubin_handle = 1, filename=BlackScholes.cu
self exe links to: /sciclone/data20/adwait/applications/benchmarks/CUDA/BlackScholes/gpgpu_ptx_sim__BlackScholes
Running md5sum using "md5sum /sciclone/data20/adwait/applications/benchmarks/CUDA/BlackScholes/gpgpu_ptx_sim__BlackScholes "
Parsing file _cuobjdump_complete_output_5Zpe07
######### cuobjdump parser ########
## Adding new section ELF
Adding arch: sm_20
Adding identifier: BlackScholes.cu
## Adding new section PTX
Adding ptx filename: _cuobjdump_1.ptx
Adding arch: sm_20
Adding identifier: BlackScholes.cu
Done parsing!!!
GPGPU-Sim PTX: __cudaRegisterFunction _Z15BlackScholesGPUPfS_S_S_S_ffi : hostFun 0x0x405752, fat_cubin_handle = 1
GPGPU-Sim PTX: instruction assembly for function '_Z15BlackScholesGPUPfS_S_S_S_ffi'...   done.
GPGPU-Sim PTX: finding reconvergence points for '_Z15BlackScholesGPUPfS_S_S_S_ffi'...
GPGPU-Sim PTX: Finding dominators for '_Z15BlackScholesGPUPfS_S_S_S_ffi'...
GPGPU-Sim PTX: Finding immediate dominators for '_Z15BlackScholesGPUPfS_S_S_S_ffi'...
GPGPU-Sim PTX: Finding postdominators for '_Z15BlackScholesGPUPfS_S_S_S_ffi'...
GPGPU-Sim PTX: Finding immediate postdominators for '_Z15BlackScholesGPUPfS_S_S_S_ffi'...
GPGPU-Sim PTX: pre-decoding instructions for '_Z15BlackScholesGPUPfS_S_S_S_ffi'...
GPGPU-Sim PTX: reconvergence points for _Z15BlackScholesGPUPfS_S_S_S_ffi...
GPGPU-Sim PTX:  1 (potential) branch divergence @  PC=0x040 (_1.ptx:76) @%p1 bra $Lt_0_2818;
GPGPU-Sim PTX:    immediate post dominator      @  PC=0x3f8 (_1.ptx:200) exit;
GPGPU-Sim PTX:  2 (potential) branch divergence @  PC=0x3f0 (_1.ptx:197) @%p4 bra $Lt_0_3330;
GPGPU-Sim PTX:    immediate post dominator      @  PC=0x3f8 (_1.ptx:200) exit;
GPGPU-Sim PTX: ... end of reconvergence points for _Z15BlackScholesGPUPfS_S_S_S_ffi
GPGPU-Sim PTX: ... done pre-decoding instructions for '_Z15BlackScholesGPUPfS_S_S_S_ffi'.
GPGPU-Sim PTX: finished parsing EMBEDDED .ptx file _1.ptx
Adding _cuobjdump_1.ptx with cubin handle 1
GPGPU-Sim PTX: extracting embedded .ptx to temporary file "_ptx_ZZZ6qM"
Running: cat _ptx_ZZZ6qM | sed 's/.version 1.5/.version 1.4/' | sed 's/, texmode_independent//' | sed 's/\(\.extern \.const\[1\] .b8 \w\+\)\[\]/\1\[1\]/' | sed 's/const\[.\]/const\[0\]/g' > _ptx2_Vaqnlr
GPGPU-Sim PTX: generating ptxinfo using "$CUDA_INSTALL_PATH/bin/ptxas --gpu-name=sm_20 -v _ptx2_Vaqnlr --output-file  /dev/null 2> _ptx_ZZZ6qMinfo"
GPGPU-Sim PTX: Kernel '_Z15BlackScholesGPUPfS_S_S_S_ffi' : regs=31, lmem=0, smem=0, cmem=128
GPGPU-Sim PTX: removing ptxinfo using "rm -f _ptx_ZZZ6qM _ptx2_Vaqnlr _ptx_ZZZ6qMinfo"
GPGPU-Sim PTX: loading globals with explicit initializers... 
GPGPU-Sim PTX: finished loading globals (0 bytes total).
GPGPU-Sim PTX: loading constants with explicit initializers...  done.
Initializing data...
...allocating CPU memory for options.
...allocating GPU memory for options.
...generating input data in CPU mem.
...copying input data to GPU mem.
Data init done.
Executing Black-Scholes GPU kernel (1 iterations)...
GPGPU-Sim: synchronize waiting for inactive GPU simulation
GPGPU-Sim API: Stream Manager State
GPGPU-Sim: detected inactive GPU simulation thread

GPGPU-Sim PTX: cudaLaunch for 0x0x405752 (mode=performance simulation) on stream 0
GPGPU-Sim PTX: pushing kernel '_Z15BlackScholesGPUPfS_S_S_S_ffi' to stream 0, gridDim= (480,1,1) blockDim = (128,1,1) 
kernel '_Z15BlackScholesGPUPfS_S_S_S_ffi' transfer to GPU hardware scheduler
GPGPU-Sim uArch: Shader 1 bind to kernel 1 '_Z15BlackScholesGPUPfS_S_S_S_ffi'
GPGPU-Sim uArch: CTA/core = 8, limited by: regs cta_limit
GPGPU-Sim uArch: core:  1, cta: 0 initialized @(1,0)
GPGPU-Sim uArch: Shader 2 bind to kernel 1 '_Z15BlackScholesGPUPfS_S_S_S_ffi'
GPGPU-Sim uArch: core:  2, cta: 0 initialized @(1,0)
GPGPU-Sim uArch: Shader 3 bind to kernel 1 '_Z15BlackScholesGPUPfS_S_S_S_ffi'
GPGPU-Sim uArch: core:  3, cta: 0 initialized @(1,0)
GPGPU-Sim uArch: Shader 4 bind to kernel 1 '_Z15BlackScholesGPUPfS_S_S_S_ffi'
GPGPU-Sim uArch: core:  4, cta: 0 initialized @(1,0)
GPGPU-Sim uArch: Shader 5 bind to kernel 1 '_Z15BlackScholesGPUPfS_S_S_S_ffi'
GPGPU-Sim uArch: core:  5, cta: 0 initialized @(1,0)
GPGPU-Sim uArch: Shader 6 bind to kernel 1 '_Z15BlackScholesGPUPfS_S_S_S_ffi'
GPGPU-Sim uArch: core:  6, cta: 0 initialized @(1,0)
GPGPU-Sim uArch: Shader 7 bind to kernel 1 '_Z15BlackScholesGPUPfS_S_S_S_ffi'
GPGPU-Sim uArch: core:  7, cta: 0 initialized @(1,0)
GPGPU-Sim uArch: Shader 8 bind to kernel 1 '_Z15BlackScholesGPUPfS_S_S_S_ffi'
GPGPU-Sim uArch: core:  8, cta: 0 initialized @(1,0)
GPGPU-Sim uArch: Shader 9 bind to kernel 1 '_Z15BlackScholesGPUPfS_S_S_S_ffi'
GPGPU-Sim uArch: core:  9, cta: 0 initialized @(1,0)
GPGPU-Sim uArch: Shader 10 bind to kernel 1 '_Z15BlackScholesGPUPfS_S_S_S_ffi'
GPGPU-Sim uArch: core: 10, cta: 0 initialized @(1,0)
GPGPU-Sim uArch: Shader 11 bind to kernel 1 '_Z15BlackScholesGPUPfS_S_S_S_ffi'
GPGPU-Sim uArch: core: 11, cta: 0 initialized @(1,0)
GPGPU-Sim uArch: Shader 12 bind to kernel 1 '_Z15BlackScholesGPUPfS_S_S_S_ffi'
GPGPU-Sim uArch: core: 12, cta: 0 initialized @(1,0)
GPGPU-Sim uArch: Shader 13 bind to kernel 1 '_Z15BlackScholesGPUPfS_S_S_S_ffi'
GPGPU-Sim uArch: core: 13, cta: 0 initialized @(1,0)
GPGPU-Sim uArch: Shader 14 bind to kernel 1 '_Z15BlackScholesGPUPfS_S_S_S_ffi'
GPGPU-Sim uArch: core: 14, cta: 0 initialized @(1,0)
GPGPU-Sim uArch: Shader 0 bind to kernel 1 '_Z15BlackScholesGPUPfS_S_S_S_ffi'
GPGPU-Sim uArch: core:  0, cta: 0 initialized @(1,0)
GPGPU-Sim uArch: core:  1, cta: 1 initialized @(2,0)
GPGPU-Sim uArch: core:  2, cta: 1 initialized @(2,0)
GPGPU-Sim uArch: core:  3, cta: 1 initialized @(2,0)
GPGPU-Sim uArch: core:  4, cta: 1 initialized @(2,0)
GPGPU-Sim uArch: core:  5, cta: 1 initialized @(2,0)
GPGPU-Sim uArch: core:  6, cta: 1 initialized @(2,0)
GPGPU-Sim uArch: core:  7, cta: 1 initialized @(2,0)
GPGPU-Sim uArch: core:  8, cta: 1 initialized @(2,0)
GPGPU-Sim uArch: core:  9, cta: 1 initialized @(2,0)
GPGPU-Sim uArch: core: 10, cta: 1 initialized @(2,0)
GPGPU-Sim uArch: core: 11, cta: 1 initialized @(2,0)
GPGPU-Sim uArch: core: 12, cta: 1 initialized @(2,0)
GPGPU-Sim uArch: core: 13, cta: 1 initialized @(2,0)
GPGPU-Sim uArch: core: 14, cta: 1 initialized @(2,0)
GPGPU-Sim uArch: core:  0, cta: 1 initialized @(2,0)
GPGPU-Sim uArch: core:  1, cta: 2 initialized @(3,0)
GPGPU-Sim uArch: core:  2, cta: 2 initialized @(3,0)
GPGPU-Sim uArch: core:  3, cta: 2 initialized @(3,0)
GPGPU-Sim uArch: core:  4, cta: 2 initialized @(3,0)
GPGPU-Sim uArch: core:  5, cta: 2 initialized @(3,0)
GPGPU-Sim uArch: core:  6, cta: 2 initialized @(3,0)
GPGPU-Sim uArch: core:  7, cta: 2 initialized @(3,0)
GPGPU-Sim uArch: core:  8, cta: 2 initialized @(3,0)
GPGPU-Sim uArch: core:  9, cta: 2 initialized @(3,0)
GPGPU-Sim uArch: core: 10, cta: 2 initialized @(3,0)
GPGPU-Sim uArch: core: 11, cta: 2 initialized @(3,0)
GPGPU-Sim uArch: core: 12, cta: 2 initialized @(3,0)
GPGPU-Sim uArch: core: 13, cta: 2 initialized @(3,0)
GPGPU-Sim uArch: core: 14, cta: 2 initialized @(3,0)
GPGPU-Sim uArch: core:  0, cta: 2 initialized @(3,0)
GPGPU-Sim uArch: core:  1, cta: 3 initialized @(4,0)
GPGPU-Sim uArch: core:  2, cta: 3 initialized @(4,0)
GPGPU-Sim uArch: core:  3, cta: 3 initialized @(4,0)
GPGPU-Sim uArch: core:  4, cta: 3 initialized @(4,0)
GPGPU-Sim uArch: core:  5, cta: 3 initialized @(4,0)
GPGPU-Sim uArch: core:  6, cta: 3 initialized @(4,0)
GPGPU-Sim uArch: core:  7, cta: 3 initialized @(4,0)
GPGPU-Sim uArch: core:  8, cta: 3 initialized @(4,0)
GPGPU-Sim uArch: core:  9, cta: 3 initialized @(4,0)
GPGPU-Sim uArch: core: 10, cta: 3 initialized @(4,0)
GPGPU-Sim uArch: core: 11, cta: 3 initialized @(4,0)
GPGPU-Sim uArch: core: 12, cta: 3 initialized @(4,0)
GPGPU-Sim uArch: core: 13, cta: 3 initialized @(4,0)
GPGPU-Sim uArch: core: 14, cta: 3 initialized @(4,0)
GPGPU-Sim uArch: core:  0, cta: 3 initialized @(4,0)
GPGPU-Sim uArch: core:  1, cta: 4 initialized @(5,0)
GPGPU-Sim uArch: core:  2, cta: 4 initialized @(5,0)
GPGPU-Sim uArch: core:  3, cta: 4 initialized @(5,0)
GPGPU-Sim uArch: core:  4, cta: 4 initialized @(5,0)
GPGPU-Sim uArch: core:  5, cta: 4 initialized @(5,0)
GPGPU-Sim uArch: core:  6, cta: 4 initialized @(5,0)
GPGPU-Sim uArch: core:  7, cta: 4 initialized @(5,0)
GPGPU-Sim uArch: core:  8, cta: 4 initialized @(5,0)
GPGPU-Sim uArch: core:  9, cta: 4 initialized @(5,0)
GPGPU-Sim uArch: core: 10, cta: 4 initialized @(5,0)
GPGPU-Sim uArch: core: 11, cta: 4 initialized @(5,0)
GPGPU-Sim uArch: core: 12, cta: 4 initialized @(5,0)
GPGPU-Sim uArch: core: 13, cta: 4 initialized @(5,0)
GPGPU-Sim uArch: core: 14, cta: 4 initialized @(5,0)
GPGPU-Sim uArch: core:  0, cta: 4 initialized @(5,0)
GPGPU-Sim uArch: core:  1, cta: 5 initialized @(6,0)
GPGPU-Sim uArch: core:  2, cta: 5 initialized @(6,0)
GPGPU-Sim uArch: core:  3, cta: 5 initialized @(6,0)
GPGPU-Sim uArch: core:  4, cta: 5 initialized @(6,0)
GPGPU-Sim uArch: core:  5, cta: 5 initialized @(6,0)
GPGPU-Sim uArch: core:  6, cta: 5 initialized @(6,0)
GPGPU-Sim uArch: core:  7, cta: 5 initialized @(6,0)
GPGPU-Sim uArch: core:  8, cta: 5 initialized @(6,0)
GPGPU-Sim uArch: core:  9, cta: 5 initialized @(6,0)
GPGPU-Sim uArch: core: 10, cta: 5 initialized @(6,0)
GPGPU-Sim uArch: core: 11, cta: 5 initialized @(6,0)
GPGPU-Sim uArch: core: 12, cta: 5 initialized @(6,0)
GPGPU-Sim uArch: core: 13, cta: 5 initialized @(6,0)
GPGPU-Sim uArch: core: 14, cta: 5 initialized @(6,0)
GPGPU-Sim uArch: core:  0, cta: 5 initialized @(6,0)
GPGPU-Sim uArch: core:  1, cta: 6 initialized @(7,0)
GPGPU-Sim uArch: core:  2, cta: 6 initialized @(7,0)
GPGPU-Sim uArch: core:  3, cta: 6 initialized @(7,0)
GPGPU-Sim uArch: core:  4, cta: 6 initialized @(7,0)
GPGPU-Sim uArch: core:  5, cta: 6 initialized @(7,0)
GPGPU-Sim uArch: core:  6, cta: 6 initialized @(7,0)
GPGPU-Sim uArch: core:  7, cta: 6 initialized @(7,0)
GPGPU-Sim uArch: core:  8, cta: 6 initialized @(7,0)
GPGPU-Sim uArch: core:  9, cta: 6 initialized @(7,0)
GPGPU-Sim uArch: core: 10, cta: 6 initialized @(7,0)
GPGPU-Sim uArch: core: 11, cta: 6 initialized @(7,0)
GPGPU-Sim uArch: core: 12, cta: 6 initialized @(7,0)
GPGPU-Sim uArch: core: 13, cta: 6 initialized @(7,0)
GPGPU-Sim uArch: core: 14, cta: 6 initialized @(7,0)
GPGPU-Sim uArch: core:  0, cta: 6 initialized @(7,0)
GPGPU-Sim uArch: core:  1, cta: 7 initialized @(8,0)
GPGPU-Sim uArch: core:  2, cta: 7 initialized @(8,0)
GPGPU-Sim uArch: core:  3, cta: 7 initialized @(8,0)
GPGPU-Sim uArch: core:  4, cta: 7 initialized @(8,0)
GPGPU-Sim uArch: core:  5, cta: 7 initialized @(8,0)
GPGPU-Sim uArch: core:  6, cta: 7 initialized @(8,0)
GPGPU-Sim uArch: core:  7, cta: 7 initialized @(8,0)
GPGPU-Sim uArch: core:  8, cta: 7 initialized @(8,0)
GPGPU-Sim uArch: core:  9, cta: 7 initialized @(8,0)
GPGPU-Sim uArch: core: 10, cta: 7 initialized @(8,0)
GPGPU-Sim uArch: core: 11, cta: 7 initialized @(8,0)
GPGPU-Sim uArch: core: 12, cta: 7 initialized @(8,0)
GPGPU-Sim uArch: core: 13, cta: 7 initialized @(8,0)
GPGPU-Sim uArch: core: 14, cta: 7 initialized @(8,0)
GPGPU-Sim uArch: core:  0, cta: 7 initialized @(8,0)
GPGPU-Sim PTX: 100000 instructions simulated : ctaid=(13,0,0) tid=(31,0,0)
GPGPU-Sim uArch: cycles simulated: 500  inst.: 92160 (ipc=184.3) sim_rate=46080 (inst/sec) elapsed = 0:0:00:02 / Sun Feb 28 21:33:55 2016
GPGPU-Sim PTX: 200000 instructions simulated : ctaid=(94,0,0) tid=(63,0,0)
GPGPU-Sim PTX: 300000 instructions simulated : ctaid=(97,0,0) tid=(127,0,0)
GPGPU-Sim PTX: 400000 instructions simulated : ctaid=(20,0,0) tid=(31,0,0)
GPGPU-Sim uArch: cycles simulated: 2000  inst.: 464352 (ipc=232.2) sim_rate=154784 (inst/sec) elapsed = 0:0:00:03 / Sun Feb 28 21:33:56 2016
GPGPU-Sim PTX: 500000 instructions simulated : ctaid=(0,0,0) tid=(31,0,0)
GPGPU-Sim PTX: 600000 instructions simulated : ctaid=(98,0,0) tid=(95,0,0)
GPGPU-Sim PTX: 700000 instructions simulated : ctaid=(27,0,0) tid=(31,0,0)
GPGPU-Sim PTX: 800000 instructions simulated : ctaid=(89,0,0) tid=(95,0,0)
GPGPU-Sim PTX: 900000 instructions simulated : ctaid=(34,0,0) tid=(31,0,0)
GPGPU-Sim PTX: 1000000 instructions simulated : ctaid=(77,0,0) tid=(127,0,0)
GPGPU-Sim PTX: 1100000 instructions simulated : ctaid=(17,0,0) tid=(63,0,0)
GPGPU-Sim uArch: cycles simulated: 3500  inst.: 1144096 (ipc=326.9) sim_rate=286024 (inst/sec) elapsed = 0:0:00:04 / Sun Feb 28 21:33:57 2016
GPGPU-Sim PTX: 1200000 instructions simulated : ctaid=(94,0,0) tid=(95,0,0)
GPGPU-Sim PTX: 1300000 instructions simulated : ctaid=(74,0,0) tid=(95,0,0)
GPGPU-Sim PTX: 1400000 instructions simulated : ctaid=(41,0,0) tid=(31,0,0)
GPGPU-Sim PTX: 1500000 instructions simulated : ctaid=(93,0,0) tid=(95,0,0)
GPGPU-Sim PTX: 1600000 instructions simulated : ctaid=(93,0,0) tid=(31,0,0)
GPGPU-Sim PTX: 1700000 instructions simulated : ctaid=(80,0,0) tid=(127,0,0)
GPGPU-Sim PTX: 1800000 instructions simulated : ctaid=(95,0,0) tid=(127,0,0)
GPGPU-Sim uArch: cycles simulated: 4500  inst.: 1796576 (ipc=399.2) sim_rate=359315 (inst/sec) elapsed = 0:0:00:05 / Sun Feb 28 21:33:58 2016
GPGPU-Sim PTX: 1900000 instructions simulated : ctaid=(20,0,0) tid=(31,0,0)
GPGPU-Sim PTX: 2000000 instructions simulated : ctaid=(56,0,0) tid=(127,0,0)
GPGPU-Sim PTX: 2100000 instructions simulated : ctaid=(5,0,0) tid=(63,0,0)
GPGPU-Sim PTX: 2200000 instructions simulated : ctaid=(3,0,0) tid=(63,0,0)
GPGPU-Sim uArch: cycles simulated: 5500  inst.: 2237568 (ipc=406.8) sim_rate=372928 (inst/sec) elapsed = 0:0:00:06 / Sun Feb 28 21:33:59 2016
GPGPU-Sim PTX: 2300000 instructions simulated : ctaid=(16,0,0) tid=(63,0,0)
GPGPU-Sim PTX: 2400000 instructions simulated : ctaid=(81,0,0) tid=(127,0,0)
GPGPU-Sim PTX: 2500000 instructions simulated : ctaid=(15,0,0) tid=(63,0,0)
GPGPU-Sim PTX: 2600000 instructions simulated : ctaid=(39,0,0) tid=(63,0,0)
GPGPU-Sim PTX: 2700000 instructions simulated : ctaid=(55,0,0) tid=(95,0,0)
GPGPU-Sim PTX: 2800000 instructions simulated : ctaid=(81,0,0) tid=(31,0,0)
GPGPU-Sim PTX: 2900000 instructions simulated : ctaid=(76,0,0) tid=(63,0,0)
GPGPU-Sim uArch: cycles simulated: 6500  inst.: 2935616 (ipc=451.6) sim_rate=419373 (inst/sec) elapsed = 0:0:00:07 / Sun Feb 28 21:34:00 2016
GPGPU-Sim PTX: 3000000 instructions simulated : ctaid=(74,0,0) tid=(95,0,0)
GPGPU-Sim PTX: 3100000 instructions simulated : ctaid=(80,0,0) tid=(63,0,0)
GPGPU-Sim PTX: 3200000 instructions simulated : ctaid=(84,0,0) tid=(95,0,0)
GPGPU-Sim PTX: 3300000 instructions simulated : ctaid=(20,0,0) tid=(95,0,0)
GPGPU-Sim PTX: 3400000 instructions simulated : ctaid=(118,0,0) tid=(95,0,0)
GPGPU-Sim PTX: 3500000 instructions simulated : ctaid=(109,0,0) tid=(127,0,0)
GPGPU-Sim PTX: 3600000 instructions simulated : ctaid=(16,0,0) tid=(63,0,0)
GPGPU-Sim uArch: cycles simulated: 7500  inst.: 3586848 (ipc=478.2) sim_rate=448356 (inst/sec) elapsed = 0:0:00:08 / Sun Feb 28 21:34:01 2016
GPGPU-Sim PTX: 3700000 instructions simulated : ctaid=(25,0,0) tid=(31,0,0)
GPGPU-Sim PTX: 3800000 instructions simulated : ctaid=(31,0,0) tid=(127,0,0)
GPGPU-Sim PTX: 3900000 instructions simulated : ctaid=(52,0,0) tid=(127,0,0)
GPGPU-Sim PTX: 4000000 instructions simulated : ctaid=(87,0,0) tid=(127,0,0)
GPGPU-Sim PTX: 4100000 instructions simulated : ctaid=(21,0,0) tid=(127,0,0)
GPGPU-Sim PTX: 4200000 instructions simulated : ctaid=(102,0,0) tid=(95,0,0)
GPGPU-Sim uArch: cycles simulated: 8500  inst.: 4241088 (ipc=499.0) sim_rate=471232 (inst/sec) elapsed = 0:0:00:09 / Sun Feb 28 21:34:02 2016
GPGPU-Sim PTX: 4300000 instructions simulated : ctaid=(74,0,0) tid=(63,0,0)
GPGPU-Sim PTX: 4400000 instructions simulated : ctaid=(50,0,0) tid=(127,0,0)
GPGPU-Sim PTX: 4500000 instructions simulated : ctaid=(65,0,0) tid=(95,0,0)
GPGPU-Sim uArch: cycles simulated: 9000  inst.: 4557824 (ipc=506.4) sim_rate=455782 (inst/sec) elapsed = 0:0:00:10 / Sun Feb 28 21:34:03 2016
GPGPU-Sim PTX: 4600000 instructions simulated : ctaid=(92,0,0) tid=(31,0,0)
GPGPU-Sim PTX: 4700000 instructions simulated : ctaid=(117,0,0) tid=(31,0,0)
GPGPU-Sim PTX: 4800000 instructions simulated : ctaid=(93,0,0) tid=(31,0,0)
GPGPU-Sim PTX: 4900000 instructions simulated : ctaid=(60,0,0) tid=(63,0,0)
GPGPU-Sim PTX: 5000000 instructions simulated : ctaid=(38,0,0) tid=(95,0,0)
GPGPU-Sim PTX: 5100000 instructions simulated : ctaid=(34,0,0) tid=(127,0,0)
GPGPU-Sim PTX: 5200000 instructions simulated : ctaid=(82,0,0) tid=(31,0,0)
GPGPU-Sim uArch: cycles simulated: 10000  inst.: 5169632 (ipc=517.0) sim_rate=469966 (inst/sec) elapsed = 0:0:00:11 / Sun Feb 28 21:34:04 2016
GPGPU-Sim PTX: 5300000 instructions simulated : ctaid=(115,0,0) tid=(127,0,0)
GPGPU-Sim PTX: 5400000 instructions simulated : ctaid=(29,0,0) tid=(127,0,0)
GPGPU-Sim PTX: 5500000 instructions simulated : ctaid=(65,0,0) tid=(31,0,0)
GPGPU-Sim PTX: 5600000 instructions simulated : ctaid=(82,0,0) tid=(31,0,0)
GPGPU-Sim PTX: 5700000 instructions simulated : ctaid=(85,0,0) tid=(63,0,0)
GPGPU-Sim PTX: 5800000 instructions simulated : ctaid=(109,0,0) tid=(31,0,0)
GPGPU-Sim uArch: cycles simulated: 11000  inst.: 5838880 (ipc=530.8) sim_rate=486573 (inst/sec) elapsed = 0:0:00:12 / Sun Feb 28 21:34:05 2016
GPGPU-Sim PTX: 5900000 instructions simulated : ctaid=(91,0,0) tid=(31,0,0)
GPGPU-Sim PTX: 6000000 instructions simulated : ctaid=(7,0,0) tid=(63,0,0)
GPGPU-Sim PTX: 6100000 instructions simulated : ctaid=(97,0,0) tid=(31,0,0)
GPGPU-Sim PTX: 6200000 instructions simulated : ctaid=(62,0,0) tid=(95,0,0)
GPGPU-Sim PTX: 6300000 instructions simulated : ctaid=(85,0,0) tid=(95,0,0)
GPGPU-Sim PTX: 6400000 instructions simulated : ctaid=(96,0,0) tid=(95,0,0)
GPGPU-Sim PTX: 6500000 instructions simulated : ctaid=(55,0,0) tid=(31,0,0)
GPGPU-Sim uArch: cycles simulated: 12000  inst.: 6516224 (ipc=543.0) sim_rate=501248 (inst/sec) elapsed = 0:0:00:13 / Sun Feb 28 21:34:06 2016
GPGPU-Sim PTX: 6600000 instructions simulated : ctaid=(81,0,0) tid=(63,0,0)
GPGPU-Sim PTX: 6700000 instructions simulated : ctaid=(102,0,0) tid=(127,0,0)
GPGPU-Sim PTX: 6800000 instructions simulated : ctaid=(37,0,0) tid=(63,0,0)
GPGPU-Sim PTX: 6900000 instructions simulated : ctaid=(7,0,0) tid=(31,0,0)
GPGPU-Sim PTX: 7000000 instructions simulated : ctaid=(20,0,0) tid=(63,0,0)
GPGPU-Sim PTX: 7100000 instructions simulated : ctaid=(30,0,0) tid=(95,0,0)
GPGPU-Sim PTX: 7200000 instructions simulated : ctaid=(21,0,0) tid=(95,0,0)
GPGPU-Sim uArch: cycles simulated: 13000  inst.: 7208576 (ipc=554.5) sim_rate=514898 (inst/sec) elapsed = 0:0:00:14 / Sun Feb 28 21:34:07 2016
GPGPU-Sim PTX: 7300000 instructions simulated : ctaid=(48,0,0) tid=(95,0,0)
GPGPU-Sim PTX: 7400000 instructions simulated : ctaid=(51,0,0) tid=(63,0,0)
GPGPU-Sim PTX: 7500000 instructions simulated : ctaid=(30,0,0) tid=(63,0,0)
GPGPU-Sim PTX: 7600000 instructions simulated : ctaid=(70,0,0) tid=(31,0,0)
GPGPU-Sim PTX: 7700000 instructions simulated : ctaid=(2,0,0) tid=(127,0,0)
GPGPU-Sim PTX: 7800000 instructions simulated : ctaid=(104,0,0) tid=(63,0,0)
GPGPU-Sim PTX: 7900000 instructions simulated : ctaid=(117,0,0) tid=(31,0,0)
GPGPU-Sim uArch: cycles simulated: 14000  inst.: 7889376 (ipc=563.5) sim_rate=525958 (inst/sec) elapsed = 0:0:00:15 / Sun Feb 28 21:34:08 2016
GPGPU-Sim PTX: 8000000 instructions simulated : ctaid=(0,0,0) tid=(127,0,0)
GPGPU-Sim PTX: 8100000 instructions simulated : ctaid=(35,0,0) tid=(127,0,0)
GPGPU-Sim PTX: 8200000 instructions simulated : ctaid=(10,0,0) tid=(95,0,0)
GPGPU-Sim PTX: 8300000 instructions simulated : ctaid=(50,0,0) tid=(127,0,0)
GPGPU-Sim PTX: 8400000 instructions simulated : ctaid=(45,0,0) tid=(95,0,0)
GPGPU-Sim PTX: 8500000 instructions simulated : ctaid=(51,0,0) tid=(63,0,0)
GPGPU-Sim uArch: cycles simulated: 15000  inst.: 8556960 (ipc=570.5) sim_rate=534810 (inst/sec) elapsed = 0:0:00:16 / Sun Feb 28 21:34:09 2016
GPGPU-Sim PTX: 8600000 instructions simulated : ctaid=(40,0,0) tid=(95,0,0)
GPGPU-Sim PTX: 8700000 instructions simulated : ctaid=(15,0,0) tid=(127,0,0)
GPGPU-Sim PTX: 8800000 instructions simulated : ctaid=(69,0,0) tid=(63,0,0)
GPGPU-Sim PTX: 8900000 instructions simulated : ctaid=(24,0,0) tid=(95,0,0)
GPGPU-Sim PTX: 9000000 instructions simulated : ctaid=(17,0,0) tid=(95,0,0)
GPGPU-Sim PTX: 9100000 instructions simulated : ctaid=(102,0,0) tid=(31,0,0)
GPGPU-Sim PTX: 9200000 instructions simulated : ctaid=(77,0,0) tid=(31,0,0)
GPGPU-Sim uArch: cycles simulated: 16000  inst.: 9214496 (ipc=575.9) sim_rate=542029 (inst/sec) elapsed = 0:0:00:17 / Sun Feb 28 21:34:10 2016
GPGPU-Sim PTX: 9300000 instructions simulated : ctaid=(118,0,0) tid=(95,0,0)
GPGPU-Sim PTX: 9400000 instructions simulated : ctaid=(65,0,0) tid=(95,0,0)
GPGPU-Sim PTX: 9500000 instructions simulated : ctaid=(26,0,0) tid=(95,0,0)
GPGPU-Sim PTX: 9600000 instructions simulated : ctaid=(4,0,0) tid=(127,0,0)
GPGPU-Sim PTX: 9700000 instructions simulated : ctaid=(99,0,0) tid=(95,0,0)
GPGPU-Sim PTX: 9800000 instructions simulated : ctaid=(65,0,0) tid=(127,0,0)
GPGPU-Sim uArch: cycles simulated: 17000  inst.: 9818272 (ipc=577.5) sim_rate=545459 (inst/sec) elapsed = 0:0:00:18 / Sun Feb 28 21:34:11 2016
GPGPU-Sim PTX: 9900000 instructions simulated : ctaid=(17,0,0) tid=(63,0,0)
GPGPU-Sim PTX: 10000000 instructions simulated : ctaid=(40,0,0) tid=(31,0,0)
GPGPU-Sim PTX: 10100000 instructions simulated : ctaid=(98,0,0) tid=(95,0,0)
GPGPU-Sim PTX: 10200000 instructions simulated : ctaid=(74,0,0) tid=(31,0,0)
GPGPU-Sim PTX: 10300000 instructions simulated : ctaid=(7,0,0) tid=(95,0,0)
GPGPU-Sim PTX: 10400000 instructions simulated : ctaid=(8,0,0) tid=(63,0,0)
GPGPU-Sim uArch: cycles simulated: 18000  inst.: 10390368 (ipc=577.2) sim_rate=546861 (inst/sec) elapsed = 0:0:00:19 / Sun Feb 28 21:34:12 2016
GPGPU-Sim PTX: 10500000 instructions simulated : ctaid=(26,0,0) tid=(127,0,0)
GPGPU-Sim PTX: 10600000 instructions simulated : ctaid=(21,0,0) tid=(95,0,0)
GPGPU-Sim PTX: 10700000 instructions simulated : ctaid=(5,0,0) tid=(31,0,0)
GPGPU-Sim PTX: 10800000 instructions simulated : ctaid=(66,0,0) tid=(127,0,0)
GPGPU-Sim PTX: 10900000 instructions simulated : ctaid=(1,0,0) tid=(31,0,0)
GPGPU-Sim PTX: 11000000 instructions simulated : ctaid=(94,0,0) tid=(31,0,0)
GPGPU-Sim uArch: cycles simulated: 19000  inst.: 10965088 (ipc=577.1) sim_rate=548254 (inst/sec) elapsed = 0:0:00:20 / Sun Feb 28 21:34:13 2016
GPGPU-Sim PTX: 11100000 instructions simulated : ctaid=(42,0,0) tid=(63,0,0)
GPGPU-Sim PTX: 11200000 instructions simulated : ctaid=(95,0,0) tid=(63,0,0)
GPGPU-Sim PTX: 11300000 instructions simulated : ctaid=(11,0,0) tid=(127,0,0)
GPGPU-Sim PTX: 11400000 instructions simulated : ctaid=(66,0,0) tid=(95,0,0)
GPGPU-Sim PTX: 11500000 instructions simulated : ctaid=(75,0,0) tid=(95,0,0)
GPGPU-Sim PTX: 11600000 instructions simulated : ctaid=(74,0,0) tid=(95,0,0)
GPGPU-Sim uArch: cycles simulated: 20000  inst.: 11613600 (ipc=580.7) sim_rate=553028 (inst/sec) elapsed = 0:0:00:21 / Sun Feb 28 21:34:14 2016
GPGPU-Sim PTX: 11700000 instructions simulated : ctaid=(64,0,0) tid=(63,0,0)
GPGPU-Sim PTX: 11800000 instructions simulated : ctaid=(87,0,0) tid=(63,0,0)
GPGPU-Sim PTX: 11900000 instructions simulated : ctaid=(41,0,0) tid=(95,0,0)
GPGPU-Sim PTX: 12000000 instructions simulated : ctaid=(52,0,0) tid=(95,0,0)
GPGPU-Sim PTX: 12100000 instructions simulated : ctaid=(83,0,0) tid=(95,0,0)
GPGPU-Sim PTX: 12200000 instructions simulated : ctaid=(6,0,0) tid=(95,0,0)
GPGPU-Sim uArch: cycles simulated: 21000  inst.: 12210368 (ipc=581.4) sim_rate=555016 (inst/sec) elapsed = 0:0:00:22 / Sun Feb 28 21:34:15 2016
GPGPU-Sim PTX: 12300000 instructions simulated : ctaid=(28,0,0) tid=(127,0,0)
GPGPU-Sim PTX: 12400000 instructions simulated : ctaid=(71,0,0) tid=(31,0,0)
GPGPU-Sim PTX: 12500000 instructions simulated : ctaid=(22,0,0) tid=(63,0,0)
GPGPU-Sim PTX: 12600000 instructions simulated : ctaid=(70,0,0) tid=(127,0,0)
GPGPU-Sim PTX: 12700000 instructions simulated : ctaid=(53,0,0) tid=(63,0,0)
GPGPU-Sim PTX: 12800000 instructions simulated : ctaid=(11,0,0) tid=(31,0,0)
GPGPU-Sim uArch: cycles simulated: 22000  inst.: 12824032 (ipc=582.9) sim_rate=557566 (inst/sec) elapsed = 0:0:00:23 / Sun Feb 28 21:34:16 2016
GPGPU-Sim PTX: 12900000 instructions simulated : ctaid=(25,0,0) tid=(63,0,0)
GPGPU-Sim PTX: 13000000 instructions simulated : ctaid=(66,0,0) tid=(127,0,0)
GPGPU-Sim PTX: 13100000 instructions simulated : ctaid=(3,0,0) tid=(127,0,0)
GPGPU-Sim PTX: 13200000 instructions simulated : ctaid=(109,0,0) tid=(31,0,0)
GPGPU-Sim PTX: 13300000 instructions simulated : ctaid=(48,0,0) tid=(31,0,0)
GPGPU-Sim PTX: 13400000 instructions simulated : ctaid=(14,0,0) tid=(127,0,0)
GPGPU-Sim uArch: cycles simulated: 23000  inst.: 13408864 (ipc=583.0) sim_rate=558702 (inst/sec) elapsed = 0:0:00:24 / Sun Feb 28 21:34:17 2016
GPGPU-Sim PTX: 13500000 instructions simulated : ctaid=(42,0,0) tid=(95,0,0)
GPGPU-Sim PTX: 13600000 instructions simulated : ctaid=(68,0,0) tid=(95,0,0)
GPGPU-Sim PTX: 13700000 instructions simulated : ctaid=(16,0,0) tid=(127,0,0)
GPGPU-Sim PTX: 13800000 instructions simulated : ctaid=(60,0,0) tid=(127,0,0)
GPGPU-Sim PTX: 13900000 instructions simulated : ctaid=(6,0,0) tid=(95,0,0)
GPGPU-Sim PTX: 14000000 instructions simulated : ctaid=(37,0,0) tid=(95,0,0)
GPGPU-Sim uArch: cycles simulated: 24000  inst.: 14048768 (ipc=585.4) sim_rate=561950 (inst/sec) elapsed = 0:0:00:25 / Sun Feb 28 21:34:18 2016
GPGPU-Sim PTX: 14100000 instructions simulated : ctaid=(72,0,0) tid=(127,0,0)
GPGPU-Sim PTX: 14200000 instructions simulated : ctaid=(3,0,0) tid=(127,0,0)
GPGPU-Sim PTX: 14300000 instructions simulated : ctaid=(82,0,0) tid=(95,0,0)
GPGPU-Sim PTX: 14400000 instructions simulated : ctaid=(64,0,0) tid=(127,0,0)
GPGPU-Sim PTX: 14500000 instructions simulated : ctaid=(114,0,0) tid=(63,0,0)
GPGPU-Sim PTX: 14600000 instructions simulated : ctaid=(16,0,0) tid=(31,0,0)
GPGPU-Sim PTX: 14700000 instructions simulated : ctaid=(63,0,0) tid=(127,0,0)
GPGPU-Sim uArch: cycles simulated: 25000  inst.: 14671776 (ipc=586.9) sim_rate=564299 (inst/sec) elapsed = 0:0:00:26 / Sun Feb 28 21:34:19 2016
GPGPU-Sim PTX: 14800000 instructions simulated : ctaid=(20,0,0) tid=(127,0,0)
GPGPU-Sim PTX: 14900000 instructions simulated : ctaid=(99,0,0) tid=(63,0,0)
GPGPU-Sim PTX: 15000000 instructions simulated : ctaid=(29,0,0) tid=(31,0,0)
GPGPU-Sim PTX: 15100000 instructions simulated : ctaid=(41,0,0) tid=(95,0,0)
GPGPU-Sim PTX: 15200000 instructions simulated : ctaid=(61,0,0) tid=(95,0,0)
GPGPU-Sim PTX: 15300000 instructions simulated : ctaid=(100,0,0) tid=(127,0,0)
GPGPU-Sim uArch: cycles simulated: 26000  inst.: 15276800 (ipc=587.6) sim_rate=565807 (inst/sec) elapsed = 0:0:00:27 / Sun Feb 28 21:34:20 2016
GPGPU-Sim PTX: 15400000 instructions simulated : ctaid=(37,0,0) tid=(127,0,0)
GPGPU-Sim PTX: 15500000 instructions simulated : ctaid=(73,0,0) tid=(127,0,0)
GPGPU-Sim PTX: 15600000 instructions simulated : ctaid=(50,0,0) tid=(95,0,0)
GPGPU-Sim PTX: 15700000 instructions simulated : ctaid=(50,0,0) tid=(31,0,0)
GPGPU-Sim PTX: 15800000 instructions simulated : ctaid=(100,0,0) tid=(31,0,0)
GPGPU-Sim PTX: 15900000 instructions simulated : ctaid=(32,0,0) tid=(95,0,0)
GPGPU-Sim uArch: cycles simulated: 27000  inst.: 15901952 (ipc=589.0) sim_rate=567926 (inst/sec) elapsed = 0:0:00:28 / Sun Feb 28 21:34:21 2016
GPGPU-Sim PTX: 16000000 instructions simulated : ctaid=(82,0,0) tid=(63,0,0)
GPGPU-Sim PTX: 16100000 instructions simulated : ctaid=(72,0,0) tid=(95,0,0)
GPGPU-Sim PTX: 16200000 instructions simulated : ctaid=(96,0,0) tid=(95,0,0)
GPGPU-Sim uArch: cycles simulated: 27500  inst.: 16207200 (ipc=589.4) sim_rate=558868 (inst/sec) elapsed = 0:0:00:29 / Sun Feb 28 21:34:22 2016
GPGPU-Sim PTX: 16300000 instructions simulated : ctaid=(7,0,0) tid=(95,0,0)
GPGPU-Sim PTX: 16400000 instructions simulated : ctaid=(52,0,0) tid=(31,0,0)
GPGPU-Sim PTX: 16500000 instructions simulated : ctaid=(63,0,0) tid=(95,0,0)
GPGPU-Sim PTX: 16600000 instructions simulated : ctaid=(9,0,0) tid=(95,0,0)
GPGPU-Sim PTX: 16700000 instructions simulated : ctaid=(87,0,0) tid=(31,0,0)
GPGPU-Sim PTX: 16800000 instructions simulated : ctaid=(52,0,0) tid=(95,0,0)
GPGPU-Sim uArch: cycles simulated: 28500  inst.: 16779712 (ipc=588.8) sim_rate=559323 (inst/sec) elapsed = 0:0:00:30 / Sun Feb 28 21:34:23 2016
GPGPU-Sim PTX: 16900000 instructions simulated : ctaid=(64,0,0) tid=(95,0,0)
GPGPU-Sim PTX: 17000000 instructions simulated : ctaid=(99,0,0) tid=(31,0,0)
GPGPU-Sim PTX: 17100000 instructions simulated : ctaid=(36,0,0) tid=(63,0,0)
GPGPU-Sim PTX: 17200000 instructions simulated : ctaid=(82,0,0) tid=(63,0,0)
GPGPU-Sim PTX: 17300000 instructions simulated : ctaid=(3,0,0) tid=(31,0,0)
GPGPU-Sim PTX: 17400000 instructions simulated : ctaid=(40,0,0) tid=(95,0,0)
GPGPU-Sim uArch: cycles simulated: 29500  inst.: 17378368 (ipc=589.1) sim_rate=560592 (inst/sec) elapsed = 0:0:00:31 / Sun Feb 28 21:34:24 2016
GPGPU-Sim PTX: 17500000 instructions simulated : ctaid=(58,0,0) tid=(127,0,0)
GPGPU-Sim PTX: 17600000 instructions simulated : ctaid=(0,0,0) tid=(95,0,0)
GPGPU-Sim PTX: 17700000 instructions simulated : ctaid=(83,0,0) tid=(31,0,0)
GPGPU-Sim PTX: 17800000 instructions simulated : ctaid=(92,0,0) tid=(95,0,0)
GPGPU-Sim PTX: 17900000 instructions simulated : ctaid=(101,0,0) tid=(31,0,0)
GPGPU-Sim uArch: cycles simulated: 30500  inst.: 17952096 (ipc=588.6) sim_rate=561003 (inst/sec) elapsed = 0:0:00:32 / Sun Feb 28 21:34:25 2016
GPGPU-Sim PTX: 18000000 instructions simulated : ctaid=(59,0,0) tid=(127,0,0)
GPGPU-Sim PTX: 18100000 instructions simulated : ctaid=(63,0,0) tid=(63,0,0)
GPGPU-Sim PTX: 18200000 instructions simulated : ctaid=(11,0,0) tid=(127,0,0)
GPGPU-Sim PTX: 18300000 instructions simulated : ctaid=(27,0,0) tid=(31,0,0)
GPGPU-Sim PTX: 18400000 instructions simulated : ctaid=(87,0,0) tid=(63,0,0)
GPGPU-Sim PTX: 18500000 instructions simulated : ctaid=(17,0,0) tid=(127,0,0)
GPGPU-Sim uArch: cycles simulated: 31500  inst.: 18536160 (ipc=588.4) sim_rate=561701 (inst/sec) elapsed = 0:0:00:33 / Sun Feb 28 21:34:26 2016
GPGPU-Sim PTX: 18600000 instructions simulated : ctaid=(70,0,0) tid=(31,0,0)
GPGPU-Sim PTX: 18700000 instructions simulated : ctaid=(20,0,0) tid=(95,0,0)
GPGPU-Sim PTX: 18800000 instructions simulated : ctaid=(52,0,0) tid=(63,0,0)
GPGPU-Sim uArch: cycles simulated: 32000  inst.: 18837920 (ipc=588.7) sim_rate=554056 (inst/sec) elapsed = 0:0:00:34 / Sun Feb 28 21:34:27 2016
GPGPU-Sim PTX: 18900000 instructions simulated : ctaid=(15,0,0) tid=(127,0,0)
GPGPU-Sim PTX: 19000000 instructions simulated : ctaid=(87,0,0) tid=(95,0,0)
GPGPU-Sim PTX: 19100000 instructions simulated : ctaid=(46,0,0) tid=(63,0,0)
GPGPU-Sim PTX: 19200000 instructions simulated : ctaid=(10,0,0) tid=(95,0,0)
GPGPU-Sim PTX: 19300000 instructions simulated : ctaid=(111,0,0) tid=(31,0,0)
GPGPU-Sim PTX: 19400000 instructions simulated : ctaid=(23,0,0) tid=(127,0,0)
GPGPU-Sim uArch: cycles simulated: 33000  inst.: 19368128 (ipc=586.9) sim_rate=553375 (inst/sec) elapsed = 0:0:00:35 / Sun Feb 28 21:34:28 2016
GPGPU-Sim PTX: 19500000 instructions simulated : ctaid=(84,0,0) tid=(31,0,0)
GPGPU-Sim PTX: 19600000 instructions simulated : ctaid=(51,0,0) tid=(31,0,0)
GPGPU-Sim PTX: 19700000 instructions simulated : ctaid=(11,0,0) tid=(63,0,0)
GPGPU-Sim PTX: 19800000 instructions simulated : ctaid=(62,0,0) tid=(95,0,0)
GPGPU-Sim PTX: 19900000 instructions simulated : ctaid=(114,0,0) tid=(95,0,0)
GPGPU-Sim uArch: cycles simulated: 34000  inst.: 19952480 (ipc=586.8) sim_rate=554235 (inst/sec) elapsed = 0:0:00:36 / Sun Feb 28 21:34:29 2016
GPGPU-Sim PTX: 20000000 instructions simulated : ctaid=(65,0,0) tid=(127,0,0)
GPGPU-Sim PTX: 20100000 instructions simulated : ctaid=(42,0,0) tid=(31,0,0)
GPGPU-Sim PTX: 20200000 instructions simulated : ctaid=(86,0,0) tid=(127,0,0)
GPGPU-Sim PTX: 20300000 instructions simulated : ctaid=(89,0,0) tid=(31,0,0)
GPGPU-Sim PTX: 20400000 instructions simulated : ctaid=(80,0,0) tid=(63,0,0)
GPGPU-Sim PTX: 20500000 instructions simulated : ctaid=(45,0,0) tid=(95,0,0)
GPGPU-Sim uArch: cycles simulated: 35000  inst.: 20521664 (ipc=586.3) sim_rate=554639 (inst/sec) elapsed = 0:0:00:37 / Sun Feb 28 21:34:30 2016
GPGPU-Sim PTX: 20600000 instructions simulated : ctaid=(94,0,0) tid=(31,0,0)
GPGPU-Sim PTX: 20700000 instructions simulated : ctaid=(57,0,0) tid=(95,0,0)
GPGPU-Sim PTX: 20800000 instructions simulated : ctaid=(8,0,0) tid=(127,0,0)
GPGPU-Sim PTX: 20900000 instructions simulated : ctaid=(24,0,0) tid=(95,0,0)
GPGPU-Sim PTX: 21000000 instructions simulated : ctaid=(18,0,0) tid=(127,0,0)
GPGPU-Sim uArch: cycles simulated: 36000  inst.: 21063264 (ipc=585.1) sim_rate=554296 (inst/sec) elapsed = 0:0:00:38 / Sun Feb 28 21:34:31 2016
GPGPU-Sim PTX: 21100000 instructions simulated : ctaid=(63,0,0) tid=(63,0,0)
GPGPU-Sim PTX: 21200000 instructions simulated : ctaid=(13,0,0) tid=(63,0,0)
GPGPU-Sim PTX: 21300000 instructions simulated : ctaid=(84,0,0) tid=(95,0,0)
GPGPU-Sim uArch: cycles simulated: 36500  inst.: 21333056 (ipc=584.5) sim_rate=547001 (inst/sec) elapsed = 0:0:00:39 / Sun Feb 28 21:34:32 2016
GPGPU-Sim PTX: 21400000 instructions simulated : ctaid=(60,0,0) tid=(95,0,0)
GPGPU-Sim PTX: 21500000 instructions simulated : ctaid=(62,0,0) tid=(127,0,0)
GPGPU-Sim PTX: 21600000 instructions simulated : ctaid=(81,0,0) tid=(63,0,0)
GPGPU-Sim PTX: 21700000 instructions simulated : ctaid=(43,0,0) tid=(127,0,0)
GPGPU-Sim PTX: 21800000 instructions simulated : ctaid=(29,0,0) tid=(31,0,0)
GPGPU-Sim PTX: 21900000 instructions simulated : ctaid=(56,0,0) tid=(31,0,0)
GPGPU-Sim uArch: cycles simulated: 37500  inst.: 21910656 (ipc=584.3) sim_rate=547766 (inst/sec) elapsed = 0:0:00:40 / Sun Feb 28 21:34:33 2016
GPGPU-Sim PTX: 22000000 instructions simulated : ctaid=(20,0,0) tid=(127,0,0)
GPGPU-Sim PTX: 22100000 instructions simulated : ctaid=(34,0,0) tid=(31,0,0)
GPGPU-Sim PTX: 22200000 instructions simulated : ctaid=(81,0,0) tid=(63,0,0)
GPGPU-Sim PTX: 22300000 instructions simulated : ctaid=(42,0,0) tid=(127,0,0)
GPGPU-Sim PTX: 22400000 instructions simulated : ctaid=(7,0,0) tid=(63,0,0)
GPGPU-Sim PTX: 22500000 instructions simulated : ctaid=(5,0,0) tid=(95,0,0)
GPGPU-Sim uArch: cycles simulated: 38500  inst.: 22498048 (ipc=584.4) sim_rate=548732 (inst/sec) elapsed = 0:0:00:41 / Sun Feb 28 21:34:34 2016
GPGPU-Sim PTX: 22600000 instructions simulated : ctaid=(11,0,0) tid=(127,0,0)
GPGPU-Sim PTX: 22700000 instructions simulated : ctaid=(102,0,0) tid=(31,0,0)
GPGPU-Sim PTX: 22800000 instructions simulated : ctaid=(30,0,0) tid=(31,0,0)
GPGPU-Sim PTX: 22900000 instructions simulated : ctaid=(74,0,0) tid=(63,0,0)
GPGPU-Sim PTX: 23000000 instructions simulated : ctaid=(50,0,0) tid=(63,0,0)
GPGPU-Sim uArch: cycles simulated: 39500  inst.: 23040000 (ipc=583.3) sim_rate=548571 (inst/sec) elapsed = 0:0:00:42 / Sun Feb 28 21:34:35 2016
GPGPU-Sim PTX: 23100000 instructions simulated : ctaid=(96,0,0) tid=(95,0,0)
GPGPU-Sim PTX: 23200000 instructions simulated : ctaid=(59,0,0) tid=(31,0,0)
GPGPU-Sim PTX: 23300000 instructions simulated : ctaid=(19,0,0) tid=(63,0,0)
GPGPU-Sim PTX: 23400000 instructions simulated : ctaid=(113,0,0) tid=(31,0,0)
GPGPU-Sim PTX: 23500000 instructions simulated : ctaid=(49,0,0) tid=(95,0,0)
GPGPU-Sim PTX: 23600000 instructions simulated : ctaid=(55,0,0) tid=(63,0,0)
GPGPU-Sim uArch: cycles simulated: 40500  inst.: 23592768 (ipc=582.5) sim_rate=548669 (inst/sec) elapsed = 0:0:00:43 / Sun Feb 28 21:34:36 2016
GPGPU-Sim PTX: 23700000 instructions simulated : ctaid=(5,0,0) tid=(95,0,0)
GPGPU-Sim PTX: 23800000 instructions simulated : ctaid=(40,0,0) tid=(31,0,0)
GPGPU-Sim PTX: 23900000 instructions simulated : ctaid=(21,0,0) tid=(127,0,0)
GPGPU-Sim uArch: cycles simulated: 41000  inst.: 23867008 (ipc=582.1) sim_rate=542432 (inst/sec) elapsed = 0:0:00:44 / Sun Feb 28 21:34:37 2016
GPGPU-Sim PTX: 24000000 instructions simulated : ctaid=(77,0,0) tid=(127,0,0)
GPGPU-Sim PTX: 24100000 instructions simulated : ctaid=(31,0,0) tid=(127,0,0)
GPGPU-Sim PTX: 24200000 instructions simulated : ctaid=(32,0,0) tid=(127,0,0)
GPGPU-Sim PTX: 24300000 instructions simulated : ctaid=(48,0,0) tid=(127,0,0)
GPGPU-Sim PTX: 24400000 instructions simulated : ctaid=(35,0,0) tid=(31,0,0)
GPGPU-Sim uArch: cycles simulated: 42000  inst.: 24400384 (ipc=581.0) sim_rate=542230 (inst/sec) elapsed = 0:0:00:45 / Sun Feb 28 21:34:38 2016
GPGPU-Sim PTX: 24500000 instructions simulated : ctaid=(69,0,0) tid=(95,0,0)
GPGPU-Sim PTX: 24600000 instructions simulated : ctaid=(14,0,0) tid=(31,0,0)
GPGPU-Sim PTX: 24700000 instructions simulated : ctaid=(77,0,0) tid=(95,0,0)
GPGPU-Sim PTX: 24800000 instructions simulated : ctaid=(34,0,0) tid=(127,0,0)
GPGPU-Sim PTX: 24900000 instructions simulated : ctaid=(65,0,0) tid=(31,0,0)
GPGPU-Sim uArch: cycles simulated: 43000  inst.: 24962464 (ipc=580.5) sim_rate=542662 (inst/sec) elapsed = 0:0:00:46 / Sun Feb 28 21:34:39 2016
GPGPU-Sim PTX: 25000000 instructions simulated : ctaid=(25,0,0) tid=(95,0,0)
GPGPU-Sim PTX: 25100000 instructions simulated : ctaid=(53,0,0) tid=(63,0,0)
GPGPU-Sim PTX: 25200000 instructions simulated : ctaid=(82,0,0) tid=(95,0,0)
GPGPU-Sim PTX: 25300000 instructions simulated : ctaid=(34,0,0) tid=(63,0,0)
GPGPU-Sim PTX: 25400000 instructions simulated : ctaid=(115,0,0) tid=(31,0,0)
GPGPU-Sim PTX: 25500000 instructions simulated : ctaid=(42,0,0) tid=(95,0,0)
GPGPU-Sim uArch: cycles simulated: 44000  inst.: 25534016 (ipc=580.3) sim_rate=543276 (inst/sec) elapsed = 0:0:00:47 / Sun Feb 28 21:34:40 2016
GPGPU-Sim PTX: 25600000 instructions simulated : ctaid=(86,0,0) tid=(31,0,0)
GPGPU-Sim PTX: 25700000 instructions simulated : ctaid=(73,0,0) tid=(95,0,0)
GPGPU-Sim PTX: 25800000 instructions simulated : ctaid=(49,0,0) tid=(95,0,0)
GPGPU-Sim PTX: 25900000 instructions simulated : ctaid=(45,0,0) tid=(31,0,0)
GPGPU-Sim PTX: 26000000 instructions simulated : ctaid=(96,0,0) tid=(31,0,0)
GPGPU-Sim PTX: 26100000 instructions simulated : ctaid=(52,0,0) tid=(95,0,0)
GPGPU-Sim uArch: cycles simulated: 45000  inst.: 26103296 (ipc=580.1) sim_rate=543818 (inst/sec) elapsed = 0:0:00:48 / Sun Feb 28 21:34:41 2016
GPGPU-Sim PTX: 26200000 instructions simulated : ctaid=(27,0,0) tid=(127,0,0)
GPGPU-Sim PTX: 26300000 instructions simulated : ctaid=(36,0,0) tid=(127,0,0)
GPGPU-Sim PTX: 26400000 instructions simulated : ctaid=(113,0,0) tid=(31,0,0)
GPGPU-Sim PTX: 26500000 instructions simulated : ctaid=(67,0,0) tid=(31,0,0)
GPGPU-Sim PTX: 26600000 instructions simulated : ctaid=(32,0,0) tid=(95,0,0)
GPGPU-Sim uArch: cycles simulated: 46000  inst.: 26642624 (ipc=579.2) sim_rate=543727 (inst/sec) elapsed = 0:0:00:49 / Sun Feb 28 21:34:42 2016
GPGPU-Sim PTX: 26700000 instructions simulated : ctaid=(0,0,0) tid=(31,0,0)
GPGPU-Sim PTX: 26800000 instructions simulated : ctaid=(39,0,0) tid=(31,0,0)
GPGPU-Sim PTX: 26900000 instructions simulated : ctaid=(8,0,0) tid=(63,0,0)
GPGPU-Sim uArch: cycles simulated: 46500  inst.: 26912000 (ipc=578.8) sim_rate=538240 (inst/sec) elapsed = 0:0:00:50 / Sun Feb 28 21:34:43 2016
GPGPU-Sim PTX: 27000000 instructions simulated : ctaid=(16,0,0) tid=(63,0,0)
GPGPU-Sim PTX: 27100000 instructions simulated : ctaid=(56,0,0) tid=(127,0,0)
GPGPU-Sim PTX: 27200000 instructions simulated : ctaid=(59,0,0) tid=(95,0,0)
GPGPU-Sim PTX: 27300000 instructions simulated : ctaid=(96,0,0) tid=(95,0,0)
GPGPU-Sim PTX: 27400000 instructions simulated : ctaid=(14,0,0) tid=(95,0,0)
GPGPU-Sim uArch: cycles simulated: 47500  inst.: 27452064 (ipc=577.9) sim_rate=538275 (inst/sec) elapsed = 0:0:00:51 / Sun Feb 28 21:34:44 2016
GPGPU-Sim PTX: 27500000 instructions simulated : ctaid=(93,0,0) tid=(63,0,0)
GPGPU-Sim PTX: 27600000 instructions simulated : ctaid=(35,0,0) tid=(63,0,0)
GPGPU-Sim PTX: 27700000 instructions simulated : ctaid=(11,0,0) tid=(127,0,0)
GPGPU-Sim PTX: 27800000 instructions simulated : ctaid=(48,0,0) tid=(63,0,0)
GPGPU-Sim PTX: 27900000 instructions simulated : ctaid=(2,0,0) tid=(31,0,0)
GPGPU-Sim PTX: 28000000 instructions simulated : ctaid=(112,0,0) tid=(31,0,0)
GPGPU-Sim uArch: cycles simulated: 48500  inst.: 27972544 (ipc=576.8) sim_rate=537933 (inst/sec) elapsed = 0:0:00:52 / Sun Feb 28 21:34:45 2016
GPGPU-Sim PTX: 28100000 instructions simulated : ctaid=(69,0,0) tid=(31,0,0)
GPGPU-Sim PTX: 28200000 instructions simulated : ctaid=(113,0,0) tid=(63,0,0)
GPGPU-Sim PTX: 28300000 instructions simulated : ctaid=(99,0,0) tid=(31,0,0)
GPGPU-Sim PTX: 28400000 instructions simulated : ctaid=(23,0,0) tid=(63,0,0)
GPGPU-Sim PTX: 28500000 instructions simulated : ctaid=(69,0,0) tid=(127,0,0)
GPGPU-Sim uArch: cycles simulated: 49500  inst.: 28530016 (ipc=576.4) sim_rate=538302 (inst/sec) elapsed = 0:0:00:53 / Sun Feb 28 21:34:46 2016
GPGPU-Sim PTX: 28600000 instructions simulated : ctaid=(1,0,0) tid=(63,0,0)
GPGPU-Sim PTX: 28700000 instructions simulated : ctaid=(33,0,0) tid=(31,0,0)
GPGPU-Sim PTX: 28800000 instructions simulated : ctaid=(35,0,0) tid=(95,0,0)
GPGPU-Sim PTX: 28900000 instructions simulated : ctaid=(41,0,0) tid=(31,0,0)
GPGPU-Sim PTX: 29000000 instructions simulated : ctaid=(65,0,0) tid=(95,0,0)
GPGPU-Sim PTX: 29100000 instructions simulated : ctaid=(100,0,0) tid=(95,0,0)
GPGPU-Sim uArch: cycles simulated: 50500  inst.: 29079616 (ipc=575.8) sim_rate=538511 (inst/sec) elapsed = 0:0:00:54 / Sun Feb 28 21:34:47 2016
GPGPU-Sim PTX: 29200000 instructions simulated : ctaid=(17,0,0) tid=(63,0,0)
GPGPU-Sim PTX: 29300000 instructions simulated : ctaid=(5,0,0) tid=(31,0,0)
GPGPU-Sim PTX: 29400000 instructions simulated : ctaid=(29,0,0) tid=(127,0,0)
GPGPU-Sim PTX: 29500000 instructions simulated : ctaid=(95,0,0) tid=(63,0,0)
GPGPU-Sim PTX: 29600000 instructions simulated : ctaid=(45,0,0) tid=(63,0,0)
GPGPU-Sim uArch: cycles simulated: 51500  inst.: 29626592 (ipc=575.3) sim_rate=538665 (inst/sec) elapsed = 0:0:00:55 / Sun Feb 28 21:34:48 2016
GPGPU-Sim PTX: 29700000 instructions simulated : ctaid=(1,0,0) tid=(127,0,0)
GPGPU-Sim PTX: 29800000 instructions simulated : ctaid=(70,0,0) tid=(95,0,0)
GPGPU-Sim PTX: 29900000 instructions simulated : ctaid=(77,0,0) tid=(95,0,0)
GPGPU-Sim PTX: 30000000 instructions simulated : ctaid=(17,0,0) tid=(31,0,0)
GPGPU-Sim PTX: 30100000 instructions simulated : ctaid=(32,0,0) tid=(63,0,0)
GPGPU-Sim uArch: cycles simulated: 52500  inst.: 30161536 (ipc=574.5) sim_rate=538598 (inst/sec) elapsed = 0:0:00:56 / Sun Feb 28 21:34:49 2016
GPGPU-Sim PTX: 30200000 instructions simulated : ctaid=(65,0,0) tid=(63,0,0)
GPGPU-Sim PTX: 30300000 instructions simulated : ctaid=(76,0,0) tid=(63,0,0)
GPGPU-Sim PTX: 30400000 instructions simulated : ctaid=(46,0,0) tid=(63,0,0)
GPGPU-Sim uArch: cycles simulated: 53000  inst.: 30434592 (ipc=574.2) sim_rate=533940 (inst/sec) elapsed = 0:0:00:57 / Sun Feb 28 21:34:50 2016
GPGPU-Sim PTX: 30500000 instructions simulated : ctaid=(42,0,0) tid=(127,0,0)
GPGPU-Sim PTX: 30600000 instructions simulated : ctaid=(87,0,0) tid=(31,0,0)
GPGPU-Sim PTX: 30700000 instructions simulated : ctaid=(38,0,0) tid=(127,0,0)
GPGPU-Sim PTX: 30800000 instructions simulated : ctaid=(1,0,0) tid=(95,0,0)
GPGPU-Sim PTX: 30900000 instructions simulated : ctaid=(14,0,0) tid=(95,0,0)
GPGPU-Sim uArch: cycles simulated: 54000  inst.: 30920384 (ipc=572.6) sim_rate=533110 (inst/sec) elapsed = 0:0:00:58 / Sun Feb 28 21:34:51 2016
GPGPU-Sim PTX: 31000000 instructions simulated : ctaid=(42,0,0) tid=(63,0,0)
GPGPU-Sim PTX: 31100000 instructions simulated : ctaid=(12,0,0) tid=(63,0,0)
GPGPU-Sim PTX: 31200000 instructions simulated : ctaid=(16,0,0) tid=(31,0,0)
GPGPU-Sim PTX: 31300000 instructions simulated : ctaid=(2,0,0) tid=(127,0,0)
GPGPU-Sim PTX: 31400000 instructions simulated : ctaid=(93,0,0) tid=(95,0,0)
GPGPU-Sim PTX: 31500000 instructions simulated : ctaid=(21,0,0) tid=(31,0,0)
GPGPU-Sim uArch: cycles simulated: 55000  inst.: 31468832 (ipc=572.2) sim_rate=533370 (inst/sec) elapsed = 0:0:00:59 / Sun Feb 28 21:34:52 2016
GPGPU-Sim PTX: 31600000 instructions simulated : ctaid=(112,0,0) tid=(95,0,0)
GPGPU-Sim PTX: 31700000 instructions simulated : ctaid=(18,0,0) tid=(127,0,0)
GPGPU-Sim PTX: 31800000 instructions simulated : ctaid=(32,0,0) tid=(31,0,0)
GPGPU-Sim PTX: 31900000 instructions simulated : ctaid=(18,0,0) tid=(63,0,0)
GPGPU-Sim PTX: 32000000 instructions simulated : ctaid=(63,0,0) tid=(31,0,0)
GPGPU-Sim uArch: cycles simulated: 56000  inst.: 32029056 (ipc=571.9) sim_rate=533817 (inst/sec) elapsed = 0:0:01:00 / Sun Feb 28 21:34:53 2016
GPGPU-Sim PTX: 32100000 instructions simulated : ctaid=(12,0,0) tid=(95,0,0)
GPGPU-Sim PTX: 32200000 instructions simulated : ctaid=(82,0,0) tid=(63,0,0)
GPGPU-Sim PTX: 32300000 instructions simulated : ctaid=(38,0,0) tid=(127,0,0)
GPGPU-Sim PTX: 32400000 instructions simulated : ctaid=(10,0,0) tid=(127,0,0)
GPGPU-Sim PTX: 32500000 instructions simulated : ctaid=(11,0,0) tid=(63,0,0)
GPGPU-Sim uArch: cycles simulated: 57000  inst.: 32560416 (ipc=571.2) sim_rate=533777 (inst/sec) elapsed = 0:0:01:01 / Sun Feb 28 21:34:54 2016
GPGPU-Sim PTX: 32600000 instructions simulated : ctaid=(38,0,0) tid=(127,0,0)
GPGPU-Sim PTX: 32700000 instructions simulated : ctaid=(59,0,0) tid=(127,0,0)
GPGPU-Sim PTX: 32800000 instructions simulated : ctaid=(33,0,0) tid=(31,0,0)
GPGPU-Sim PTX: 32900000 instructions simulated : ctaid=(4,0,0) tid=(31,0,0)
GPGPU-Sim PTX: 33000000 instructions simulated : ctaid=(63,0,0) tid=(31,0,0)
GPGPU-Sim PTX: 33100000 instructions simulated : ctaid=(22,0,0) tid=(127,0,0)
GPGPU-Sim uArch: cycles simulated: 58000  inst.: 33118112 (ipc=571.0) sim_rate=534163 (inst/sec) elapsed = 0:0:01:02 / Sun Feb 28 21:34:55 2016
GPGPU-Sim PTX: 33200000 instructions simulated : ctaid=(54,0,0) tid=(127,0,0)
GPGPU-Sim PTX: 33300000 instructions simulated : ctaid=(78,0,0) tid=(31,0,0)
GPGPU-Sim PTX: 33400000 instructions simulated : ctaid=(101,0,0) tid=(31,0,0)
GPGPU-Sim PTX: 33500000 instructions simulated : ctaid=(60,0,0) tid=(31,0,0)
GPGPU-Sim PTX: 33600000 instructions simulated : ctaid=(5,0,0) tid=(31,0,0)
GPGPU-Sim uArch: cycles simulated: 59000  inst.: 33615392 (ipc=569.8) sim_rate=533577 (inst/sec) elapsed = 0:0:01:03 / Sun Feb 28 21:34:56 2016
GPGPU-Sim PTX: 33700000 instructions simulated : ctaid=(42,0,0) tid=(31,0,0)
GPGPU-Sim PTX: 33800000 instructions simulated : ctaid=(89,0,0) tid=(127,0,0)
GPGPU-Sim PTX: 33900000 instructions simulated : ctaid=(60,0,0) tid=(95,0,0)
GPGPU-Sim PTX: 34000000 instructions simulated : ctaid=(32,0,0) tid=(127,0,0)
GPGPU-Sim PTX: 34100000 instructions simulated : ctaid=(1,0,0) tid=(31,0,0)
GPGPU-Sim uArch: cycles simulated: 60000  inst.: 34116640 (ipc=568.6) sim_rate=533072 (inst/sec) elapsed = 0:0:01:04 / Sun Feb 28 21:34:57 2016
GPGPU-Sim PTX: 34200000 instructions simulated : ctaid=(31,0,0) tid=(31,0,0)
GPGPU-Sim PTX: 34300000 instructions simulated : ctaid=(33,0,0) tid=(95,0,0)
GPGPU-Sim PTX: 34400000 instructions simulated : ctaid=(91,0,0) tid=(31,0,0)
GPGPU-Sim uArch: cycles simulated: 60500  inst.: 34396992 (ipc=568.5) sim_rate=529184 (inst/sec) elapsed = 0:0:01:05 / Sun Feb 28 21:34:58 2016
GPGPU-Sim PTX: 34500000 instructions simulated : ctaid=(79,0,0) tid=(95,0,0)
GPGPU-Sim PTX: 34600000 instructions simulated : ctaid=(2,0,0) tid=(31,0,0)
GPGPU-Sim PTX: 34700000 instructions simulated : ctaid=(5,0,0) tid=(31,0,0)
GPGPU-Sim PTX: 34800000 instructions simulated : ctaid=(49,0,0) tid=(63,0,0)
GPGPU-Sim PTX: 34900000 instructions simulated : ctaid=(3,0,0) tid=(31,0,0)
GPGPU-Sim uArch: cycles simulated: 61500  inst.: 34953056 (ipc=568.3) sim_rate=529591 (inst/sec) elapsed = 0:0:01:06 / Sun Feb 28 21:34:59 2016
GPGPU-Sim PTX: 35000000 instructions simulated : ctaid=(0,0,0) tid=(95,0,0)
GPGPU-Sim PTX: 35100000 instructions simulated : ctaid=(26,0,0) tid=(127,0,0)
GPGPU-Sim PTX: 35200000 instructions simulated : ctaid=(109,0,0) tid=(31,0,0)
GPGPU-Sim PTX: 35300000 instructions simulated : ctaid=(56,0,0) tid=(63,0,0)
GPGPU-Sim PTX: 35400000 instructions simulated : ctaid=(71,0,0) tid=(63,0,0)
GPGPU-Sim uArch: cycles simulated: 62500  inst.: 35461248 (ipc=567.4) sim_rate=529272 (inst/sec) elapsed = 0:0:01:07 / Sun Feb 28 21:35:00 2016
GPGPU-Sim PTX: 35500000 instructions simulated : ctaid=(58,0,0) tid=(31,0,0)
GPGPU-Sim PTX: 35600000 instructions simulated : ctaid=(24,0,0) tid=(95,0,0)
GPGPU-Sim PTX: 35700000 instructions simulated : ctaid=(34,0,0) tid=(127,0,0)
GPGPU-Sim PTX: 35800000 instructions simulated : ctaid=(25,0,0) tid=(95,0,0)
GPGPU-Sim PTX: 35900000 instructions simulated : ctaid=(57,0,0) tid=(127,0,0)
GPGPU-Sim PTX: 36000000 instructions simulated : ctaid=(29,0,0) tid=(63,0,0)
GPGPU-Sim uArch: cycles simulated: 63500  inst.: 35994848 (ipc=566.8) sim_rate=529336 (inst/sec) elapsed = 0:0:01:08 / Sun Feb 28 21:35:01 2016
GPGPU-Sim PTX: 36100000 instructions simulated : ctaid=(15,0,0) tid=(31,0,0)
GPGPU-Sim PTX: 36200000 instructions simulated : ctaid=(39,0,0) tid=(31,0,0)
GPGPU-Sim PTX: 36300000 instructions simulated : ctaid=(25,0,0) tid=(63,0,0)
GPGPU-Sim PTX: 36400000 instructions simulated : ctaid=(34,0,0) tid=(95,0,0)
GPGPU-Sim PTX: 36500000 instructions simulated : ctaid=(44,0,0) tid=(63,0,0)
GPGPU-Sim uArch: cycles simulated: 64500  inst.: 36494720 (ipc=565.8) sim_rate=528908 (inst/sec) elapsed = 0:0:01:09 / Sun Feb 28 21:35:02 2016
GPGPU-Sim PTX: 36600000 instructions simulated : ctaid=(24,0,0) tid=(63,0,0)
GPGPU-Sim uArch: Shader 1 finished CTA #0 (64798,0), 7 CTAs running
GPGPU-Sim uArch: core:  1, cta: 0 initialized @(64799,0)
GPGPU-Sim PTX: 36700000 instructions simulated : ctaid=(39,0,0) tid=(127,0,0)
GPGPU-Sim PTX: 36800000 instructions simulated : ctaid=(71,0,0) tid=(63,0,0)
GPGPU-Sim PTX: 36900000 instructions simulated : ctaid=(55,0,0) tid=(63,0,0)
GPGPU-Sim PTX: 37000000 instructions simulated : ctaid=(27,0,0) tid=(31,0,0)
GPGPU-Sim uArch: cycles simulated: 65500  inst.: 36996448 (ipc=564.8) sim_rate=528520 (inst/sec) elapsed = 0:0:01:10 / Sun Feb 28 21:35:03 2016
GPGPU-Sim PTX: 37100000 instructions simulated : ctaid=(57,0,0) tid=(31,0,0)
GPGPU-Sim PTX: 37200000 instructions simulated : ctaid=(34,0,0) tid=(127,0,0)
GPGPU-Sim uArch: Shader 3 finished CTA #0 (66010,0), 7 CTAs running
GPGPU-Sim uArch: core:  3, cta: 0 initialized @(66011,0)
GPGPU-Sim PTX: 37300000 instructions simulated : ctaid=(35,0,0) tid=(31,0,0)
GPGPU-Sim PTX: 37400000 instructions simulated : ctaid=(70,0,0) tid=(63,0,0)
GPGPU-Sim uArch: Shader 4 finished CTA #1 (66295,0), 7 CTAs running
GPGPU-Sim uArch: core:  4, cta: 1 initialized @(66296,0)
GPGPU-Sim uArch: Shader 7 finished CTA #0 (66437,0), 7 CTAs running
GPGPU-Sim uArch: core:  7, cta: 0 initialized @(66438,0)
GPGPU-Sim PTX: 37500000 instructions simulated : ctaid=(17,0,0) tid=(63,0,0)
GPGPU-Sim uArch: cycles simulated: 66500  inst.: 37468480 (ipc=563.4) sim_rate=527725 (inst/sec) elapsed = 0:0:01:11 / Sun Feb 28 21:35:04 2016
GPGPU-Sim PTX: 37600000 instructions simulated : ctaid=(34,0,0) tid=(31,0,0)
GPGPU-Sim uArch: Shader 9 finished CTA #1 (66896,0), 7 CTAs running
GPGPU-Sim uArch: core:  9, cta: 1 initialized @(66897,0)
GPGPU-Sim PTX: 37700000 instructions simulated : ctaid=(79,0,0) tid=(63,0,0)
GPGPU-Sim uArch: Shader 12 finished CTA #0 (66992,0), 7 CTAs running
GPGPU-Sim uArch: core: 12, cta: 0 initialized @(66993,0)
GPGPU-Sim uArch: Shader 0 finished CTA #1 (67002,0), 7 CTAs running
GPGPU-Sim uArch: core:  0, cta: 1 initialized @(67003,0)
GPGPU-Sim uArch: Shader 6 finished CTA #0 (67007,0), 7 CTAs running
GPGPU-Sim uArch: core:  6, cta: 0 initialized @(67008,0)
GPGPU-Sim uArch: Shader 7 finished CTA #2 (67051,0), 7 CTAs running
GPGPU-Sim uArch: core:  7, cta: 2 initialized @(67052,0)
GPGPU-Sim uArch: Shader 5 finished CTA #0 (67093,0), 7 CTAs running
GPGPU-Sim uArch: core:  5, cta: 0 initialized @(67094,0)
GPGPU-Sim PTX: 37800000 instructions simulated : ctaid=(33,0,0) tid=(63,0,0)
GPGPU-Sim uArch: Shader 11 finished CTA #0 (67269,0), 7 CTAs running
GPGPU-Sim uArch: core: 11, cta: 0 initialized @(67270,0)
GPGPU-Sim PTX: 37900000 instructions simulated : ctaid=(78,0,0) tid=(95,0,0)
GPGPU-Sim uArch: cycles simulated: 67500  inst.: 37926176 (ipc=561.9) sim_rate=526752 (inst/sec) elapsed = 0:0:01:12 / Sun Feb 28 21:35:05 2016
GPGPU-Sim uArch: Shader 6 finished CTA #1 (67560,0), 7 CTAs running
GPGPU-Sim uArch: core:  6, cta: 1 initialized @(67561,0)
GPGPU-Sim uArch: Shader 12 finished CTA #1 (67568,0), 7 CTAs running
GPGPU-Sim uArch: core: 12, cta: 1 initialized @(67569,0)
GPGPU-Sim uArch: Shader 9 finished CTA #0 (67572,0), 7 CTAs running
GPGPU-Sim uArch: core:  9, cta: 0 initialized @(67573,0)
GPGPU-Sim uArch: Shader 0 finished CTA #0 (67578,0), 7 CTAs running
GPGPU-Sim uArch: core:  0, cta: 0 initialized @(67579,0)
GPGPU-Sim PTX: 38000000 instructions simulated : ctaid=(49,0,0) tid=(63,0,0)
GPGPU-Sim uArch: Shader 6 finished CTA #2 (67596,0), 7 CTAs running
GPGPU-Sim uArch: core:  6, cta: 2 initialized @(67597,0)
GPGPU-Sim uArch: Shader 8 finished CTA #0 (67737,0), 7 CTAs running
GPGPU-Sim uArch: core:  8, cta: 0 initialized @(67738,0)
GPGPU-Sim uArch: Shader 2 finished CTA #0 (67746,0), 7 CTAs running
GPGPU-Sim uArch: core:  2, cta: 0 initialized @(67747,0)
GPGPU-Sim uArch: Shader 8 finished CTA #1 (67761,0), 7 CTAs running
GPGPU-Sim uArch: core:  8, cta: 1 initialized @(67762,0)
GPGPU-Sim uArch: Shader 2 finished CTA #1 (67764,0), 7 CTAs running
GPGPU-Sim uArch: core:  2, cta: 1 initialized @(67765,0)
GPGPU-Sim PTX: 38100000 instructions simulated : ctaid=(80,0,0) tid=(95,0,0)
GPGPU-Sim uArch: Shader 2 finished CTA #2 (67840,0), 7 CTAs running
GPGPU-Sim uArch: core:  2, cta: 2 initialized @(67841,0)
GPGPU-Sim uArch: Shader 12 finished CTA #2 (67977,0), 7 CTAs running
GPGPU-Sim uArch: core: 12, cta: 2 initialized @(67978,0)
GPGPU-Sim PTX: 38200000 instructions simulated : ctaid=(48,0,0) tid=(95,0,0)
GPGPU-Sim uArch: Shader 5 finished CTA #2 (68137,0), 7 CTAs running
GPGPU-Sim uArch: core:  5, cta: 2 initialized @(68138,0)
GPGPU-Sim PTX: 38300000 instructions simulated : ctaid=(39,0,0) tid=(31,0,0)
GPGPU-Sim uArch: Shader 11 finished CTA #1 (68256,0), 7 CTAs running
GPGPU-Sim uArch: core: 11, cta: 1 initialized @(68257,0)
GPGPU-Sim uArch: Shader 5 finished CTA #1 (68308,0), 7 CTAs running
GPGPU-Sim uArch: core:  5, cta: 1 initialized @(68309,0)
GPGPU-Sim uArch: Shader 14 finished CTA #0 (68314,0), 7 CTAs running
GPGPU-Sim uArch: core: 14, cta: 0 initialized @(68315,0)
GPGPU-Sim uArch: Shader 8 finished CTA #2 (68326,0), 7 CTAs running
GPGPU-Sim uArch: core:  8, cta: 2 initialized @(68327,0)
GPGPU-Sim PTX: 38400000 instructions simulated : ctaid=(66,0,0) tid=(127,0,0)
GPGPU-Sim uArch: Shader 11 finished CTA #2 (68440,0), 7 CTAs running
GPGPU-Sim uArch: core: 11, cta: 2 initialized @(68441,0)
GPGPU-Sim uArch: cycles simulated: 68500  inst.: 38397600 (ipc=560.5) sim_rate=525994 (inst/sec) elapsed = 0:0:01:13 / Sun Feb 28 21:35:06 2016
GPGPU-Sim uArch: Shader 13 finished CTA #0 (68557,0), 7 CTAs running
GPGPU-Sim uArch: core: 13, cta: 0 initialized @(68558,0)
GPGPU-Sim uArch: Shader 14 finished CTA #1 (68635,0), 7 CTAs running
GPGPU-Sim uArch: core: 14, cta: 1 initialized @(68636,0)
GPGPU-Sim PTX: 38500000 instructions simulated : ctaid=(100,0,0) tid=(95,0,0)
GPGPU-Sim PTX: 38600000 instructions simulated : ctaid=(104,0,0) tid=(127,0,0)
GPGPU-Sim uArch: Shader 14 finished CTA #2 (69001,0), 7 CTAs running
GPGPU-Sim uArch: core: 14, cta: 2 initialized @(69002,0)
GPGPU-Sim uArch: Shader 11 finished CTA #3 (69013,0), 7 CTAs running
GPGPU-Sim uArch: core: 11, cta: 3 initialized @(69014,0)
GPGPU-Sim uArch: Shader 1 finished CTA #1 (69021,0), 7 CTAs running
GPGPU-Sim uArch: core:  1, cta: 1 initialized @(69022,0)
GPGPU-Sim uArch: Shader 4 finished CTA #0 (69025,0), 7 CTAs running
GPGPU-Sim uArch: core:  4, cta: 0 initialized @(69026,0)
GPGPU-Sim uArch: Shader 13 finished CTA #2 (69041,0), 7 CTAs running
GPGPU-Sim uArch: core: 13, cta: 2 initialized @(69042,0)
GPGPU-Sim PTX: 38700000 instructions simulated : ctaid=(154,0,0) tid=(31,0,0)
GPGPU-Sim uArch: Shader 10 finished CTA #1 (69207,0), 7 CTAs running
GPGPU-Sim uArch: core: 10, cta: 1 initialized @(69208,0)
GPGPU-Sim PTX: 38800000 instructions simulated : ctaid=(77,0,0) tid=(31,0,0)
GPGPU-Sim uArch: Shader 4 finished CTA #2 (69440,0), 7 CTAs running
GPGPU-Sim uArch: core:  4, cta: 2 initialized @(69441,0)
GPGPU-Sim uArch: Shader 7 finished CTA #1 (69445,0), 7 CTAs running
GPGPU-Sim uArch: core:  7, cta: 1 initialized @(69446,0)
GPGPU-Sim uArch: Shader 10 finished CTA #0 (69451,0), 7 CTAs running
GPGPU-Sim uArch: core: 10, cta: 0 initialized @(69452,0)
GPGPU-Sim uArch: Shader 0 finished CTA #2 (69457,0), 7 CTAs running
GPGPU-Sim uArch: core:  0, cta: 2 initialized @(69458,0)
GPGPU-Sim uArch: cycles simulated: 69500  inst.: 38839968 (ipc=558.8) sim_rate=524864 (inst/sec) elapsed = 0:0:01:14 / Sun Feb 28 21:35:07 2016
GPGPU-Sim PTX: 38900000 instructions simulated : ctaid=(51,0,0) tid=(127,0,0)
GPGPU-Sim uArch: Shader 3 finished CTA #2 (69685,0), 7 CTAs running
GPGPU-Sim uArch: core:  3, cta: 2 initialized @(69686,0)
GPGPU-Sim PTX: 39000000 instructions simulated : ctaid=(125,0,0) tid=(127,0,0)
GPGPU-Sim uArch: Shader 9 finished CTA #3 (69726,0), 7 CTAs running
GPGPU-Sim uArch: core:  9, cta: 3 initialized @(69727,0)
GPGPU-Sim PTX: 39100000 instructions simulated : ctaid=(88,0,0) tid=(127,0,0)
GPGPU-Sim uArch: Shader 9 finished CTA #2 (69890,0), 7 CTAs running
GPGPU-Sim uArch: core:  9, cta: 2 initialized @(69891,0)
GPGPU-Sim uArch: Shader 13 finished CTA #1 (69942,0), 7 CTAs running
GPGPU-Sim uArch: core: 13, cta: 1 initialized @(69943,0)
GPGPU-Sim uArch: cycles simulated: 70000  inst.: 39103168 (ipc=558.6) sim_rate=521375 (inst/sec) elapsed = 0:0:01:15 / Sun Feb 28 21:35:08 2016
GPGPU-Sim uArch: Shader 3 finished CTA #1 (70060,0), 7 CTAs running
GPGPU-Sim uArch: core:  3, cta: 1 initialized @(70061,0)
GPGPU-Sim PTX: 39200000 instructions simulated : ctaid=(66,0,0) tid=(31,0,0)
GPGPU-Sim uArch: Shader 10 finished CTA #2 (70232,0), 7 CTAs running
GPGPU-Sim uArch: core: 10, cta: 2 initialized @(70233,0)
GPGPU-Sim PTX: 39300000 instructions simulated : ctaid=(61,0,0) tid=(95,0,0)
GPGPU-Sim PTX: 39400000 instructions simulated : ctaid=(116,0,0) tid=(127,0,0)
GPGPU-Sim PTX: 39500000 instructions simulated : ctaid=(63,0,0) tid=(95,0,0)
GPGPU-Sim PTX: 39600000 instructions simulated : ctaid=(96,0,0) tid=(95,0,0)
GPGPU-Sim uArch: cycles simulated: 71000  inst.: 39613344 (ipc=557.9) sim_rate=521228 (inst/sec) elapsed = 0:0:01:16 / Sun Feb 28 21:35:09 2016
GPGPU-Sim PTX: 39700000 instructions simulated : ctaid=(99,0,0) tid=(95,0,0)
GPGPU-Sim PTX: 39800000 instructions simulated : ctaid=(46,0,0) tid=(127,0,0)
GPGPU-Sim uArch: Shader 1 finished CTA #2 (71424,0), 7 CTAs running
GPGPU-Sim uArch: core:  1, cta: 2 initialized @(71425,0)
GPGPU-Sim PTX: 39900000 instructions simulated : ctaid=(106,0,0) tid=(63,0,0)
GPGPU-Sim PTX: 40000000 instructions simulated : ctaid=(128,0,0) tid=(31,0,0)
GPGPU-Sim uArch: Shader 4 finished CTA #3 (71752,0), 7 CTAs running
GPGPU-Sim uArch: core:  4, cta: 3 initialized @(71753,0)
GPGPU-Sim PTX: 40100000 instructions simulated : ctaid=(70,0,0) tid=(63,0,0)
GPGPU-Sim uArch: Shader 13 finished CTA #3 (71913,0), 7 CTAs running
GPGPU-Sim uArch: core: 13, cta: 3 initialized @(71914,0)
GPGPU-Sim uArch: cycles simulated: 72000  inst.: 40114496 (ipc=557.1) sim_rate=520967 (inst/sec) elapsed = 0:0:01:17 / Sun Feb 28 21:35:10 2016
GPGPU-Sim PTX: 40200000 instructions simulated : ctaid=(83,0,0) tid=(63,0,0)
GPGPU-Sim PTX: 40300000 instructions simulated : ctaid=(119,0,0) tid=(127,0,0)
GPGPU-Sim uArch: Shader 8 finished CTA #3 (72323,0), 7 CTAs running
GPGPU-Sim uArch: core:  8, cta: 3 initialized @(72324,0)
GPGPU-Sim PTX: 40400000 instructions simulated : ctaid=(116,0,0) tid=(31,0,0)
GPGPU-Sim uArch: Shader 2 finished CTA #3 (72748,0), 7 CTAs running
GPGPU-Sim uArch: core:  2, cta: 3 initialized @(72749,0)
GPGPU-Sim PTX: 40500000 instructions simulated : ctaid=(97,0,0) tid=(127,0,0)
GPGPU-Sim uArch: Shader 10 finished CTA #3 (72757,0), 7 CTAs running
GPGPU-Sim uArch: core: 10, cta: 3 initialized @(72758,0)
GPGPU-Sim PTX: 40600000 instructions simulated : ctaid=(78,0,0) tid=(63,0,0)
GPGPU-Sim uArch: cycles simulated: 73000  inst.: 40565728 (ipc=555.7) sim_rate=520073 (inst/sec) elapsed = 0:0:01:18 / Sun Feb 28 21:35:11 2016
GPGPU-Sim uArch: Shader 3 finished CTA #3 (73189,0), 7 CTAs running
GPGPU-Sim uArch: core:  3, cta: 3 initialized @(73190,0)
GPGPU-Sim PTX: 40700000 instructions simulated : ctaid=(71,0,0) tid=(127,0,0)
GPGPU-Sim PTX: 40800000 instructions simulated : ctaid=(84,0,0) tid=(95,0,0)
GPGPU-Sim uArch: Shader 12 finished CTA #3 (73449,0), 7 CTAs running
GPGPU-Sim uArch: core: 12, cta: 3 initialized @(73450,0)
GPGPU-Sim uArch: Shader 14 finished CTA #3 (73480,0), 7 CTAs running
GPGPU-Sim uArch: core: 14, cta: 3 initialized @(73481,0)
GPGPU-Sim PTX: 40900000 instructions simulated : ctaid=(158,0,0) tid=(31,0,0)
GPGPU-Sim PTX: 41000000 instructions simulated : ctaid=(59,0,0) tid=(127,0,0)
GPGPU-Sim uArch: Shader 6 finished CTA #3 (73853,0), 7 CTAs running
GPGPU-Sim uArch: core:  6, cta: 3 initialized @(73854,0)
GPGPU-Sim uArch: cycles simulated: 74000  inst.: 41017408 (ipc=554.3) sim_rate=519207 (inst/sec) elapsed = 0:0:01:19 / Sun Feb 28 21:35:12 2016
GPGPU-Sim PTX: 41100000 instructions simulated : ctaid=(160,0,0) tid=(31,0,0)
GPGPU-Sim PTX: 41200000 instructions simulated : ctaid=(85,0,0) tid=(63,0,0)
GPGPU-Sim PTX: 41300000 instructions simulated : ctaid=(160,0,0) tid=(95,0,0)
GPGPU-Sim uArch: Shader 7 finished CTA #3 (74843,0), 7 CTAs running
GPGPU-Sim uArch: core:  7, cta: 3 initialized @(74844,0)
GPGPU-Sim PTX: 41400000 instructions simulated : ctaid=(98,0,0) tid=(95,0,0)
GPGPU-Sim uArch: cycles simulated: 75000  inst.: 41411968 (ipc=552.2) sim_rate=517649 (inst/sec) elapsed = 0:0:01:20 / Sun Feb 28 21:35:13 2016
GPGPU-Sim PTX: 41500000 instructions simulated : ctaid=(95,0,0) tid=(95,0,0)
GPGPU-Sim PTX: 41600000 instructions simulated : ctaid=(93,0,0) tid=(127,0,0)
GPGPU-Sim PTX: 41700000 instructions simulated : ctaid=(90,0,0) tid=(31,0,0)
GPGPU-Sim uArch: Shader 0 finished CTA #3 (75767,0), 7 CTAs running
GPGPU-Sim uArch: core:  0, cta: 3 initialized @(75768,0)
GPGPU-Sim PTX: 41800000 instructions simulated : ctaid=(148,0,0) tid=(31,0,0)
GPGPU-Sim uArch: cycles simulated: 76000  inst.: 41839328 (ipc=550.5) sim_rate=516534 (inst/sec) elapsed = 0:0:01:21 / Sun Feb 28 21:35:14 2016
GPGPU-Sim PTX: 41900000 instructions simulated : ctaid=(166,0,0) tid=(95,0,0)
GPGPU-Sim PTX: 42000000 instructions simulated : ctaid=(88,0,0) tid=(127,0,0)
GPGPU-Sim PTX: 42100000 instructions simulated : ctaid=(84,0,0) tid=(63,0,0)
GPGPU-Sim PTX: 42200000 instructions simulated : ctaid=(81,0,0) tid=(63,0,0)
GPGPU-Sim PTX: 42300000 instructions simulated : ctaid=(69,0,0) tid=(127,0,0)
GPGPU-Sim uArch: cycles simulated: 77000  inst.: 42270784 (ipc=549.0) sim_rate=515497 (inst/sec) elapsed = 0:0:01:22 / Sun Feb 28 21:35:15 2016
GPGPU-Sim PTX: 42400000 instructions simulated : ctaid=(121,0,0) tid=(95,0,0)
GPGPU-Sim PTX: 42500000 instructions simulated : ctaid=(85,0,0) tid=(127,0,0)
GPGPU-Sim PTX: 42600000 instructions simulated : ctaid=(91,0,0) tid=(63,0,0)
GPGPU-Sim PTX: 42700000 instructions simulated : ctaid=(90,0,0) tid=(31,0,0)
GPGPU-Sim uArch: cycles simulated: 78000  inst.: 42713888 (ipc=547.6) sim_rate=514625 (inst/sec) elapsed = 0:0:01:23 / Sun Feb 28 21:35:16 2016
GPGPU-Sim PTX: 42800000 instructions simulated : ctaid=(156,0,0) tid=(95,0,0)
GPGPU-Sim PTX: 42900000 instructions simulated : ctaid=(93,0,0) tid=(63,0,0)
GPGPU-Sim PTX: 43000000 instructions simulated : ctaid=(127,0,0) tid=(31,0,0)
GPGPU-Sim PTX: 43100000 instructions simulated : ctaid=(127,0,0) tid=(127,0,0)
GPGPU-Sim uArch: cycles simulated: 79000  inst.: 43129824 (ipc=545.9) sim_rate=513450 (inst/sec) elapsed = 0:0:01:24 / Sun Feb 28 21:35:17 2016
GPGPU-Sim PTX: 43200000 instructions simulated : ctaid=(140,0,0) tid=(31,0,0)
GPGPU-Sim PTX: 43300000 instructions simulated : ctaid=(69,0,0) tid=(127,0,0)
GPGPU-Sim PTX: 43400000 instructions simulated : ctaid=(115,0,0) tid=(63,0,0)
[...]
dq_lat_table:0 	0 	0 	0 	0 	0 	0 	0 	0 	0 	0 	0 	0 	0 	0 	0 	0 	0 	0 	0 	0 	0 	0 	0 	0 	0 	0 	0 	0 	0 	0 	0 	
mf_lat_table:0 	0 	0 	0 	0 	0 	0 	4449 	24398 	176238 	107283 	147 	0 	0 	0 	0 	0 	0 	0 	0 	0 	0 	0 	0 	0 	0 	0 	0 	0 	0 	0 	0 	
icnt2mem_lat_table:0 	0 	0 	15285 	6771 	19161 	63378 	61143 	101234 	45234 	429 	0 	0 	0 	0 	0 	0 	0 	0 	0 	0 	0 	0 	0 	
icnt2sh_lat_table:0 	0 	0 	151456 	33664 	2362 	33 	0 	0 	0 	0 	95 	1692 	3443 	6360 	11498 	17937 	34098 	49877 	0 	0 	0 	0 	0 	
mf_lat_pw_table:0 	0 	0 	0 	0 	0 	0 	19 	23 	789 	88 	0 	0 	0 	0 	0 	0 	0 	0 	0 	0 	0 	0 	0 	0 	0 	0 	0 	0 	0 	0 	0 	
maximum concurrent accesses to same row:
dram[0]:        24        25        17        17        34        19        22        19        22        18        20        23        23        22        18        21 
dram[1]:        23        23        20        15        21        24        24        16        20        22        21        25        24        15        17        21 
dram[2]:        18        25        15        20        23        26        19        22        21        18        24        26        23        24        19        25 
dram[3]:        16        22        20        17        22        17        20        19        21        21        21        23        19        16        18        20 
dram[4]:        16        17        18        16        25        26        20        17        24        17        23        27        18        17        26        23 
dram[5]:        20        29        20        21        20        28        21        24        17        24        21        23        22        24        20        29 
maximum service time to same row:
dram[0]:      3131      3290      4328      4204      3866      2588      2637      2603      5634      4243      2277      2911      6232      2660      5810      4445 
dram[1]:      2635      3129      4347      3938      3872      2594      2638      2605      5710      4516      2093      2461      2856      2963      5893      4408 
dram[2]:      2355      3231      3883      3852      2690      2561      2578      3512      4385      4486      2981      2262      2930      2954      4500      4144 
dram[3]:      2263      3094      4232      3419      3443      4194      2588      2640      4719      3972      2266      2476      3700      2875      4380      4136 
dram[4]:      3139      3119      4322      4355      2553      2900      2635      2580      4485      4642      2250      2444      3284      2935      4482      4619 
dram[5]:      3787      3233      3974      3776      2556      2609      3980      2582      4723      4428      3727      2296      3238      3082      4479      4597 
average row accesses per activate:
dram[0]:  1.570398  1.549644  1.531931  1.559144  1.559880  1.546231  1.577113  1.562383  1.546823  1.542429  1.566031  1.572341  1.570139  1.554688  1.564702  1.560074 
dram[1]:  1.552388  1.555804  1.540828  1.534307  1.550331  1.563751  1.569357  1.564074  1.536664  1.527331  1.560088  1.549213  1.555066  1.540698  1.553500  1.556000 
dram[2]:  1.541899  1.539978  1.533186  1.557266  1.560045  1.556262  1.564565  1.564728  1.533527  1.530523  1.561057  1.573684  1.542878  1.552056  1.554901  1.563380 
dram[3]:  1.540095  1.544616  1.534087  1.527576  1.548955  1.550331  1.567087  1.561598  1.537824  1.517940  1.558618  1.563999  1.539855  1.545091  1.553455  1.556773 
dram[4]:  1.545794  1.554679  1.512961  1.531146  1.556554  1.578628  1.559132  1.594109  1.526202  1.545987  1.559448  1.564438  1.543173  1.550574  1.548292  1.574785 
dram[5]:  1.546057  1.556051  1.535962  1.531057  1.553301  1.554532  1.555637  1.581273  1.522622  1.538517  1.549579  1.555637  1.549342  1.551863  1.557622  1.551687 
average row locality = 403815/260276 = 1.551488
number of total memory accesses made:
dram[0]:         0         0         0         0         0         0         0         0         0         0         0         0         0         0         0         0 
dram[1]:         0         0         0         0         0         0         0         0         0         0         0         0         0         0         0         0 
dram[2]:         0         0         0         0         0         0         0         0         0         0         0         0         0         0         0         0 
dram[3]:         0         0         0         0         0         0         0         0         0         0         0         0         0         0         0         0 
dram[4]:         0         0         0         0         0         0         0         0         0         0         0         0         0         0         0         0 
dram[5]:         0         0         0         0         0         0         0         0         0         0         0         0         0         0         0         0 
total accesses: 0
min_bank_accesses = 0!
min_chip_accesses = 0!
number of total read accesses:
dram[0]:      2859      2859      2875      2876      2884      2881      2857      2867      2904      2909      2881      2880      2869      2874      2913      2912 
dram[1]:      2917      2906      2933      2929      2938      2936      2918      2920      2968      2968      2943      2933      2931      2935      2976      2972 
dram[2]:      2862      2863      2881      2873      2886      2878      2864      2867      2923      2908      2888      2883      2885      2883      2913      2912 
dram[3]:      2929      2912      2934      2936      2940      2935      2925      2918      2963      2967      2939      2937      2946      2943      2966      2958 
dram[4]:      2858      2858      2870      2879      2873      2881      2863      2862      2917      2912      2882      2883      2877      2878      2910      2915 
dram[5]:      2918      2913      2933      2940      2927      2934      2918      2917      2968      2967      2932      2932      2934      2942      2964      2971 
total reads: 279468
bank skew: 2976/2857 = 1.04
chip skew: 47048/46100 = 1.02
number of total write accesses:
dram[0]:      1279      1277      1275      1276      1284      1283      1305      1303      1308      1308      1305      1304      1306      1305      1307      1308 
dram[1]:      1276      1276      1275      1275      1282      1283      1302      1303      1307      1307      1302      1301      1305      1305      1307      1307 
dram[2]:      1278      1278      1277      1274      1284      1285      1304      1303      1308      1304      1305      1303      1307      1306      1307      1306 
dram[3]:      1277      1277      1274      1274      1284      1285      1303      1303      1306      1306      1302      1303      1304      1306      1306      1306 
dram[4]:      1277      1279      1274      1275      1283      1285      1303      1305      1306      1307      1302      1305      1305      1307      1306      1307 
dram[5]:      1278      1279      1274      1275      1284      1285      1304      1305      1306      1307      1303      1304      1305      1307      1307      1307 
total reads: 124347
bank skew: 1308/1274 = 1.03
chip skew: 20733/20713 = 1.00
average mf latency per bank:
dram[0]:        658       675       668       684       674       678       674       706       660       675       661       672       674       697       689       705
dram[1]:        658       663       675       661       679       670       692       694       663       653       667       661       684       670       690       703
dram[2]:        642       635       662       655       664       663       670       690       659       650       656       653       664       673       680       693
dram[3]:        814       825       831       838       829       848       840       873       825       830       816       829       831       856       856       883
dram[4]:        687       686       695       692       706       702       718       723       694       696       694       697       701       702       736       728
dram[5]:        655       648       661       664       676       666       676       688       658       665       663       655       666       671       695       698
maximum mf latency per bank:
dram[0]:       1768      1941      1849      2135      1914      1816      1918      1966      1802      2118      1940      1933      2199      2052      2139      2182
dram[1]:       1866      2026      1911      1788      2138      1923      1984      2019      1963      1874      2138      2014      2021      2275      2010      2324
dram[2]:       2263      1805      1934      1945      2130      2051      2074      2013      1979      1869      2277      2127      1925      2076      1854      1898
dram[3]:       2255      2514      2142      2110      2176      2363      2355      2159      2238      2199      2330      2217      2240      2217      2550      2400
dram[4]:       1810      1965      1917      1971      1833      2016      2290      2309      2147      1886      2015      2136      1859      2026      2311      1918
dram[5]:       1813      1942      2041      1910      2086      2114      1951      2137      1992      1982      2120      1858      2240      2001      2136      2159

Number of Memory Banks Accessed per Memory Operation per Warp (from 0):
0	0	0	0	0	0	0	0	0	0	0	0	0	0	0	0	0	0	0	0	0	0	0	0	0	0	0	0	0	0	0	0	0	0	0	0	0	0	0	0	0	0	0	0	0	0	0	0	0	0	0	0	0	0	0	0	0	0	0	0	0	0	0	0	0	0	0	0	0	0	0	0	0	0	0	0	0	0	0	0	0	0	0	0	0	0	0	0	0	0	0	0	0	0	0	0	
Average # of Memory Banks Accessed per Memory Operation per Warp=-nan

position of mrq chosen
0	0	0	0	0	0	0	0	0	0	0	0	0	0	0	0	

average position of mrq chosen = -nan
Memory Partition 0: 
Cache L2_bank_000:
MSHR contents

Cache L2_bank_001:
MSHR contents

In Dram Latency Queue (total = 0): 
DRAM[0]: 16 bks, busW=4 BL=8 CL=12, tRRD=2 tCCD=6, tRCD=12 tRAS=28 tRP=12 tRC=40
n_cmd=608342 n_nop=294384 n_act=42889 n_pre=42873 n_req=66833 n_rd=184400 n_write=43796 bw_util=0.7502
n_activity=589181 dram_eff=0.7746
bk0: 11436a 309472i bk1: 11436a 296637i bk2: 11500a 285451i bk3: 11504a 277224i bk4: 11536a 270670i bk5: 11524a 257136i bk6: 11428a 239093i bk7: 11468a 221078i bk8: 11616a 299341i bk9: 11636a 294161i bk10: 11524a 287248i bk11: 11520a 278453i bk12: 11476a 264442i bk13: 11496a 249945i bk14: 11652a 232728i bk15: 11648a 210430i 
dram_util_bins: 0 0 0 0 0 0 0 0 0 0
dram_eff_bins: 0 0 0 0 0 0 0 0 0 0
mrqq: max=16 avg=14.8184
Memory Partition 1: 
Cache L2_bank_002:
MSHR contents

Cache L2_bank_003:
MSHR contents

In Dram Latency Queue (total = 0): 
DRAM[1]: 16 bks, busW=4 BL=8 CL=12, tRRD=2 tCCD=6, tRCD=12 tRAS=28 tRP=12 tRC=40
n_cmd=608342 n_nop=289518 n_act=43687 n_pre=43671 n_req=67736 n_rd=188092 n_write=43374 bw_util=0.761
n_activity=596791 dram_eff=0.7757
bk0: 11668a 305590i bk1: 11624a 293537i bk2: 11732a 280331i bk3: 11716a 273339i bk4: 11752a 263836i bk5: 11744a 252694i bk6: 11672a 237320i bk7: 11680a 220305i bk8: 11872a 297067i bk9: 11872a 285661i bk10: 11772a 281519i bk11: 11732a 271866i bk12: 11724a 256335i bk13: 11740a 243383i bk14: 11904a 230062i bk15: 11888a 204888i 
dram_util_bins: 0 0 0 0 0 0 0 0 0 0
dram_eff_bins: 0 0 0 0 0 0 0 0 0 0
mrqq: max=16 avg=15.034
Memory Partition 2: 
Cache L2_bank_004:
MSHR contents

Cache L2_bank_005:
MSHR contents

In Dram Latency Queue (total = 0): 
DRAM[2]: 16 bks, busW=4 BL=8 CL=12, tRRD=2 tCCD=6, tRCD=12 tRAS=28 tRP=12 tRC=40
n_cmd=608342 n_nop=293756 n_act=43111 n_pre=43095 n_req=66898 n_rd=184676 n_write=43704 bw_util=0.7508
n_activity=588757 dram_eff=0.7758
bk0: 11448a 310059i bk1: 11452a 305905i bk2: 11524a 288227i bk3: 11492a 280113i bk4: 11544a 267623i bk5: 11512a 253634i bk6: 11456a 241814i bk7: 11468a 219803i bk8: 11692a 301124i bk9: 11632a 290694i bk10: 11552a 286077i bk11: 11532a 274523i bk12: 11540a 263077i bk13: 11532a 250499i bk14: 11652a 236844i bk15: 11648a 214026i 
dram_util_bins: 0 0 0 0 0 0 0 0 0 0
dram_eff_bins: 0 0 0 0 0 0 0 0 0 0
mrqq: max=16 avg=14.8165
Memory Partition 3: 
Cache L2_bank_006:
MSHR contents

Cache L2_bank_007:
MSHR contents

In Dram Latency Queue (total = 0): 
DRAM[3]: 16 bks, busW=4 BL=8 CL=12, tRRD=2 tCCD=6, tRCD=12 tRAS=28 tRP=12 tRC=40
n_cmd=608342 n_nop=289250 n_act=43814 n_pre=43798 n_req=67764 n_rd=188192 n_write=43288 bw_util=0.761
n_activity=597343 dram_eff=0.775
bk0: 11716a 303141i bk1: 11648a 298325i bk2: 11736a 286749i bk3: 11744a 270157i bk4: 11760a 267713i bk5: 11740a 248300i bk6: 11700a 236877i bk7: 11672a 214442i bk8: 11852a 295228i bk9: 11868a 285642i bk10: 11756a 286294i bk11: 11748a 271242i bk12: 11784a 259855i bk13: 11772a 242690i bk14: 11864a 231795i bk15: 11832a 209628i 
dram_util_bins: 0 0 0 0 0 0 0 0 0 0
dram_eff_bins: 0 0 0 0 0 0 0 0 0 0
mrqq: max=16 avg=15.3111
Memory Partition 4: 
Cache L2_bank_008:
MSHR contents

Cache L2_bank_009:
MSHR contents

In Dram Latency Queue (total = 0): 
DRAM[4]: 16 bks, busW=4 BL=8 CL=12, tRRD=2 tCCD=6, tRCD=12 tRAS=28 tRP=12 tRC=40
n_cmd=608342 n_nop=294148 n_act=43052 n_pre=43036 n_req=66844 n_rd=184472 n_write=43634 bw_util=0.7499
n_activity=588668 dram_eff=0.775
bk0: 11432a 307817i bk1: 11432a 299823i bk2: 11480a 287094i bk3: 11516a 278566i bk4: 11492a 270024i bk5: 11524a 255622i bk6: 11452a 240676i bk7: 11448a 225672i bk8: 11668a 301669i bk9: 11648a 291315i bk10: 11528a 286817i bk11: 11532a 277653i bk12: 11508a 265453i bk13: 11512a 252853i bk14: 11640a 227246i bk15: 11660a 217191i 
dram_util_bins: 0 0 0 0 0 0 0 0 0 0
dram_eff_bins: 0 0 0 0 0 0 0 0 0 0
mrqq: max=16 avg=15.0418
Memory Partition 5: 
Cache L2_bank_010:
MSHR contents

Cache L2_bank_011:
MSHR contents

In Dram Latency Queue (total = 0): 
DRAM[5]: 16 bks, busW=4 BL=8 CL=12, tRRD=2 tCCD=6, tRCD=12 tRAS=28 tRP=12 tRC=40
n_cmd=608342 n_nop=289556 n_act=43723 n_pre=43707 n_req=67740 n_rd=188040 n_write=43316 bw_util=0.7606
n_activity=596594 dram_eff=0.7756
bk0: 11672a 306595i bk1: 11652a 300647i bk2: 11732a 288387i bk3: 11760a 275896i bk4: 11708a 262605i bk5: 11736a 256223i bk6: 11672a 236779i bk7: 11668a 214612i bk8: 11872a 300031i bk9: 11868a 278926i bk10: 11728a 283452i bk11: 11728a 270185i bk12: 11736a 259752i bk13: 11768a 248818i bk14: 11856a 230075i bk15: 11884a 208523i 
dram_util_bins: 0 0 0 0 0 0 0 0 0 0
dram_eff_bins: 0 0 0 0 0 0 0 0 0 0
mrqq: max=16 avg=14.9099

========= L2 cache stats =========
L2_cache_bank[0]: Access = 26087, Miss = 23042, Miss_rate = 0.883, Pending_hits = 1268, Reservation_fails = 12786
L2_cache_bank[1]: Access = 26040, Miss = 23058, Miss_rate = 0.885, Pending_hits = 1257, Reservation_fails = 13231
L2_cache_bank[2]: Access = 26072, Miss = 23524, Miss_rate = 0.902, Pending_hits = 1037, Reservation_fails = 11198
L2_cache_bank[3]: Access = 26040, Miss = 23499, Miss_rate = 0.902, Pending_hits = 1019, Reservation_fails = 11520
L2_cache_bank[4]: Access = 26072, Miss = 23102, Miss_rate = 0.886, Pending_hits = 1223, Reservation_fails = 14286
L2_cache_bank[5]: Access = 26042, Miss = 23067, Miss_rate = 0.886, Pending_hits = 1219, Reservation_fails = 19542
L2_cache_bank[6]: Access = 26072, Miss = 23542, Miss_rate = 0.903, Pending_hits = 1054, Reservation_fails = 5196
L2_cache_bank[7]: Access = 26042, Miss = 23506, Miss_rate = 0.903, Pending_hits = 1038, Reservation_fails = 6935
L2_cache_bank[8]: Access = 26042, Miss = 23050, Miss_rate = 0.885, Pending_hits = 1267, Reservation_fails = 11828
L2_cache_bank[9]: Access = 26042, Miss = 23068, Miss_rate = 0.886, Pending_hits = 1272, Reservation_fails = 14958
L2_cache_bank[10]: Access = 26042, Miss = 23494, Miss_rate = 0.902, Pending_hits = 1018, Reservation_fails = 17065
L2_cache_bank[11]: Access = 26042, Miss = 23516, Miss_rate = 0.903, Pending_hits = 1051, Reservation_fails = 28036
L2_total_cache_accesses = 312635
L2_total_cache_misses = 279468
L2_total_cache_miss_rate = 0.8939
L2_total_cache_pending_hits = 13723
L2_total_cache_reservation_fails = 166581
L2_total_cache_breakdown:
	L2_cache_stats_breakdown[GLOBAL_ACC_R][HIT] = 12467
	L2_cache_stats_breakdown[GLOBAL_ACC_R][HIT_RESERVED] = 7654
	L2_cache_stats_breakdown[GLOBAL_ACC_R][MISS] = 167379
	L2_cache_stats_breakdown[GLOBAL_ACC_R][RESERVATION_FAIL] = 96576
	L2_cache_stats_breakdown[CONST_ACC_R][HIT] = 11
	L2_cache_stats_breakdown[CONST_ACC_R][HIT_RESERVED] = 3
	L2_cache_stats_breakdown[CONST_ACC_R][MISS] = 1
	L2_cache_stats_breakdown[CONST_ACC_R][RESERVATION_FAIL] = 113
	L2_cache_stats_breakdown[GLOBAL_ACC_W][HIT] = 6862
	L2_cache_stats_breakdown[GLOBAL_ACC_W][HIT_RESERVED] = 6054
	L2_cache_stats_breakdown[GLOBAL_ACC_W][MISS] = 112084
	L2_cache_stats_breakdown[GLOBAL_ACC_W][RESERVATION_FAIL] = 69204
	L2_cache_stats_breakdown[INST_ACC_R][HIT] = 104
	L2_cache_stats_breakdown[INST_ACC_R][HIT_RESERVED] = 12
	L2_cache_stats_breakdown[INST_ACC_R][MISS] = 4
	L2_cache_stats_breakdown[INST_ACC_R][RESERVATION_FAIL] = 688
L2_cache_data_port_util = 0.020
L2_cache_fill_port_util = 0.404

icnt_total_pkts_mem_to_simt=1063145
icnt_total_pkts_simt_to_mem=812635
LD_mem_lat_dist  0 0 0 0 0 0 0 0 0 0 0 0 0 0 0 0 0 0 0 0 0 0 0 0 0 0 0
ST_mem_lat_dist  0 0 0 0 0 0 0 0 0 0 0 0 0 0 0 0 0 0 0 0 0 0 0 0 0 0 0
----------------------------Interconnect-DETAILS--------------------------------
Class 0:
Packet latency average = 70.552
	minimum = 6
	maximum = 1192
Network latency average = 46.0825
	minimum = 6
	maximum = 821
Slowest packet = 3870
Flit latency average = 33.4534
	minimum = 6
	maximum = 806
Slowest flit = 696951
Fragmentation average = 0.788315
	minimum = 0
	maximum = 647
Injected packet rate average = 0.0502492
	minimum = 0.0438067 (at node 6)
	maximum = 0.0566043 (at node 15)
Accepted packet rate average = 0.0502492
	minimum = 0.0438067 (at node 6)
	maximum = 0.0566043 (at node 15)
Injected flit rate average = 0.150745
	minimum = 0.113866 (at node 6)
	maximum = 0.192553 (at node 15)
Accepted flit rate average= 0.150745
	minimum = 0.146906 (at node 16)
	maximum = 0.15856 (at node 9)
Injected packet length average = 2.99995
Accepted packet length average = 2.99995
Total in-flight flits = 0 (0 measured)
====== Overall Traffic Statistics ======
====== Traffic class 0 ======
Packet latency average = 70.552 (1 samples)
	minimum = 6 (1 samples)
	maximum = 1192 (1 samples)
Network latency average = 46.0825 (1 samples)
	minimum = 6 (1 samples)
	maximum = 821 (1 samples)
Flit latency average = 33.4534 (1 samples)
	minimum = 6 (1 samples)
	maximum = 806 (1 samples)
Fragmentation average = 0.788315 (1 samples)
	minimum = 0 (1 samples)
	maximum = 647 (1 samples)
Injected packet rate average = 0.0502492 (1 samples)
	minimum = 0.0438067 (1 samples)
	maximum = 0.0566043 (1 samples)
Accepted packet rate average = 0.0502492 (1 samples)
	minimum = 0.0438067 (1 samples)
	maximum = 0.0566043 (1 samples)
Injected flit rate average = 0.150745 (1 samples)
	minimum = 0.113866 (1 samples)
	maximum = 0.192553 (1 samples)
Accepted flit rate average = 0.150745 (1 samples)
	minimum = 0.146906 (1 samples)
	maximum = 0.15856 (1 samples)
Injected packet size average = 2.99995 (1 samples)
Accepted packet size average = 2.99995 (1 samples)
Hops average = 1 (1 samples)
----------------------------END-of-Interconnect-DETAILS-------------------------


gpgpu_simulation_time = 0 days, 0 hrs, 8 min, 0 sec (480 sec)
gpgpu_simulation_rate = 407878 (inst/sec)
gpgpu_simulation_rate = 960 (cycle/sec)
GPGPU-Sim API: Stream Manager State
GPGPU-Sim: detected inactive GPU simulation thread
Options count             : 4000000     
BlackScholesGPU() time    : 478527.062500 msec
Effective memory bandwidth: 0.000084 GB/s
Gigaoptions per second    : 0.000008     
Reading back GPU results...
Checking the results...
...running CPU calculations.
Comparing the results...
L1 norm: 1.729535E-07
Max absolute error: 1.192093E-05
TEST PASSED
Shutting down...
...releasing GPU memory.
...releasing CPU memory.
Shutdown done.
GPGPU-Sim: exit_simulation called
GPGPU-Sim: simulation thread signaled exit

Press ENTER to exit...
