

        *** GPGPU-Sim Simulator Version 3.2.2  [build 0] ***


GPGPU-Sim PTX: simulation mode 0 (can change with PTX_SIM_MODE_FUNC environment variable:
               1=functional simulation only, 0=detailed performance simulator)
GPGPU-Sim: Configuration options:

-network_mode                           1 # Interconnection network mode
-inter_config_file   config_fermi_islip.icnt # Interconnection network config file
-gpgpu_ptx_use_cuobjdump                    1 # Use cuobjdump to extract ptx and sass from binaries
-gpgpu_experimental_lib_support                    0 # Try to extract code from cuda libraries [Broken because of unknown cudaGetExportTable]
-gpgpu_ptx_convert_to_ptxplus                    0 # Convert SASS (native ISA) to ptxplus and run ptxplus
-gpgpu_ptx_force_max_capability                   20 # Force maximum compute capability
-gpgpu_ptx_inst_debug_to_file                    0 # Dump executed instructions' debug information to file
-gpgpu_ptx_inst_debug_file       inst_debug.txt # Executed instructions' debug output file
-gpgpu_ptx_inst_debug_thread_uid                    1 # Thread UID for executed instructions' debug output
-gpgpu_simd_model                       1 # 1 = post-dominator
-gpgpu_shader_core_pipeline              1536:32 # shader core pipeline config, i.e., {<nthread>:<warpsize>}
-gpgpu_tex_cache:l1  4:128:24,L:R:m:N:L,F:128:4,128:2 # per-shader L1 texture cache  (READ-ONLY) config  {<nsets>:<bsize>:<assoc>,<rep>:<wr>:<alloc>:<wr_alloc>,<mshr>:<N>:<merge>,<mq>:<rf>}
-gpgpu_const_cache:l1 64:64:2,L:R:f:N:L,A:2:32,4 # per-shader L1 constant memory cache  (READ-ONLY) config  {<nsets>:<bsize>:<assoc>,<rep>:<wr>:<alloc>:<wr_alloc>,<mshr>:<N>:<merge>,<mq>} 
-gpgpu_cache:il1     4:128:4,L:R:f:N:L,A:2:32,4 # shader L1 instruction cache config  {<nsets>:<bsize>:<assoc>,<rep>:<wr>:<alloc>:<wr_alloc>,<mshr>:<N>:<merge>,<mq>} 
-gpgpu_cache:dl1     32:128:4,L:L:m:N:H,A:32:8,8 # per-shader L1 data cache config  {<nsets>:<bsize>:<assoc>,<rep>:<wr>:<alloc>:<wr_alloc>,<mshr>:<N>:<merge>,<mq> | none}
-gpgpu_cache:dl1PrefL1                 none # per-shader L1 data cache config  {<nsets>:<bsize>:<assoc>,<rep>:<wr>:<alloc>:<wr_alloc>,<mshr>:<N>:<merge>,<mq> | none}
-gpgpu_cache:dl1PreShared                 none # per-shader L1 data cache config  {<nsets>:<bsize>:<assoc>,<rep>:<wr>:<alloc>:<wr_alloc>,<mshr>:<N>:<merge>,<mq> | none}
-gmem_skip_L1D                          0 # global memory access skip L1D cache (implements -Xptxas -dlcm=cg, default=no skip)
-gpgpu_perfect_mem                      0 # enable perfect memory mode (no cache miss)
-n_regfile_gating_group                    4 # group of lanes that should be read/written together)
-gpgpu_clock_gated_reg_file                    0 # enable clock gated reg file for power calculations
-gpgpu_clock_gated_lanes                    0 # enable clock gated lanes for power calculations
-gpgpu_shader_registers                32768 # Number of registers per shader core. Limits number of concurrent CTAs. (default 8192)
-gpgpu_shader_cta                       8 # Maximum number of concurrent CTAs in shader (default 8)
-gpgpu_num_cta_barriers                   16 # Maximum number of named barriers per CTA (default 16)
-gpgpu_n_clusters                      15 # number of processing clusters
-gpgpu_n_cores_per_cluster                    1 # number of simd cores per cluster
-gpgpu_n_cluster_ejection_buffer_size                    8 # number of packets in ejection buffer
-gpgpu_n_ldst_response_buffer_size                    2 # number of response packets in ld/st unit ejection buffer
-gpgpu_shmem_size                   16384 # Size of shared memory per shader core (default 16kB)
-gpgpu_shmem_size                   49152 # Size of shared memory per shader core (default 16kB)
-gpgpu_shmem_size_PrefL1                16384 # Size of shared memory per shader core (default 16kB)
-gpgpu_shmem_size_PrefShared                16384 # Size of shared memory per shader core (default 16kB)
-gpgpu_shmem_num_banks                   32 # Number of banks in the shared memory in each shader core (default 16)
-gpgpu_shmem_limited_broadcast                    0 # Limit shared memory to do one broadcast per cycle (default on)
-gpgpu_shmem_warp_parts                    1 # Number of portions a warp is divided into for shared memory bank conflict check 
-gpgpu_warpdistro_shader                   -1 # Specify which shader core to collect the warp size distribution from
-gpgpu_warp_issue_shader                    0 # Specify which shader core to collect the warp issue distribution from
-gpgpu_local_mem_map                    1 # Mapping from local memory space address to simulated GPU physical address space (default = enabled)
-gpgpu_num_reg_banks                   16 # Number of register banks (default = 8)
-gpgpu_reg_bank_use_warp_id                    0 # Use warp ID in mapping registers to banks (default = off)
-gpgpu_operand_collector_num_units_sp                    6 # number of collector units (default = 4)
-gpgpu_operand_collector_num_units_sfu                    8 # number of collector units (default = 4)
-gpgpu_operand_collector_num_units_mem                    2 # number of collector units (default = 2)
-gpgpu_operand_collector_num_units_gen                    0 # number of collector units (default = 0)
-gpgpu_operand_collector_num_in_ports_sp                    2 # number of collector unit in ports (default = 1)
-gpgpu_operand_collector_num_in_ports_sfu                    1 # number of collector unit in ports (default = 1)
-gpgpu_operand_collector_num_in_ports_mem                    1 # number of collector unit in ports (default = 1)
-gpgpu_operand_collector_num_in_ports_gen                    0 # number of collector unit in ports (default = 0)
-gpgpu_operand_collector_num_out_ports_sp                    2 # number of collector unit in ports (default = 1)
-gpgpu_operand_collector_num_out_ports_sfu                    1 # number of collector unit in ports (default = 1)
-gpgpu_operand_collector_num_out_ports_mem                    1 # number of collector unit in ports (default = 1)
-gpgpu_operand_collector_num_out_ports_gen                    0 # number of collector unit in ports (default = 0)
-gpgpu_coalesce_arch                   13 # Coalescing arch (default = 13, anything else is off for now)
-gpgpu_num_sched_per_core                    2 # Number of warp schedulers per core
-gpgpu_max_insn_issue_per_warp                    1 # Max number of instructions that can be issued per warp in one cycle by scheduler
-gpgpu_simt_core_sim_order                    1 # Select the simulation order of cores in a cluster (0=Fix, 1=Round-Robin)
-gpgpu_pipeline_widths        2,1,1,2,1,1,2 # Pipeline widths ID_OC_SP,ID_OC_SFU,ID_OC_MEM,OC_EX_SP,OC_EX_SFU,OC_EX_MEM,EX_WB
-gpgpu_num_sp_units                     2 # Number of SP units (default=1)
-gpgpu_num_sfu_units                    1 # Number of SF units (default=1)
-gpgpu_num_mem_units                    1 # Number if ldst units (default=1) WARNING: not hooked up to anything
-gpgpu_scheduler                      gto # Scheduler configuration: < lrr | gto | two_level_active > If two_level_active:<num_active_warps>:<inner_prioritization>:<outer_prioritization>For complete list of prioritization values see shader.h enum scheduler_prioritization_typeDefault: gto
-gpgpu_dram_scheduler                    1 # 0 = fifo, 1 = FR-FCFS (defaul)
-gpgpu_dram_partition_queues              8:8:8:8 # i2$:$2d:d2$:$2i
-l2_ideal                               0 # Use a ideal L2 cache that always hit
-gpgpu_cache:dl2     64:128:8,L:B:m:W:L,A:32:4,4:0,32 # unified banked L2 data cache config  {<nsets>:<bsize>:<assoc>,<rep>:<wr>:<alloc>:<wr_alloc>,<mshr>:<N>:<merge>,<mq>}
-gpgpu_cache:dl2_texture_only                    0 # L2 cache used for texture only
-gpgpu_n_mem                            6 # number of memory modules (e.g. memory controllers) in gpu
-gpgpu_n_sub_partition_per_mchannel                    2 # number of memory subpartition in each memory module
-gpgpu_n_mem_per_ctrlr                    2 # number of memory chips per memory controller
-gpgpu_memlatency_stat                   14 # track and display latency statistics 0x2 enables MC, 0x4 enables queue logs
-gpgpu_frfcfs_dram_sched_queue_size                   16 # 0 = unlimited (default); # entries per chip
-gpgpu_dram_return_queue_size                  116 # 0 = unlimited (default); # entries per chip
-gpgpu_dram_buswidth                    4 # default = 4 bytes (8 bytes per cycle at DDR)
-gpgpu_dram_burst_length                    4 # Burst length of each DRAM request (default = 4 data bus cycle)
-dram_data_command_freq_ratio                    4 # Frequency ratio between DRAM data bus and command bus (default = 2 times, i.e. DDR)
-gpgpu_dram_timing_opt nbk=16:CCD=2:RRD=6:RCD=12:RAS=28:RP=12:RC=40: CL=12:WL=4:CDLR=5:WR=12:nbkgrp=4:CCDL=3:RTPL=2 # DRAM timing parameters = {nbk:tCCD:tRRD:tRCD:tRAS:tRP:tRC:CL:WL:tCDLR:tWR:nbkgrp:tCCDL:tRTPL}
-rop_latency                          120 # ROP queue latency (default 85)
-dram_latency                         100 # DRAM latency (default 30)
-gpgpu_mem_addr_mapping dramid@8;00000000.00000000.00000000.00000000.0000RRRR.RRRRRRRR.BBBCCCCB.CCSSSSSS # mapping memory address to dram model {dramid@<start bit>;<memory address map>}
-gpgpu_mem_addr_test                    0 # run sweep test to check address mapping for aliased address
-gpgpu_mem_address_mask                    1 # 0 = old addressing mask, 1 = new addressing mask, 2 = new add. mask + flipped bank sel and chip sel bits
-gpuwattch_xml_file  gpuwattch_gtx480.xml # GPUWattch XML file
-power_simulation_enabled                    0 # Turn on power simulator (1=On, 0=Off)
-power_per_cycle_dump                    0 # Dump detailed power output each cycle
-power_trace_enabled                    0 # produce a file for the power trace (1=On, 0=Off)
-power_trace_zlevel                     6 # Compression level of the power trace output log (0=no comp, 9=highest)
-steady_power_levels_enabled                    0 # produce a file for the steady power levels (1=On, 0=Off)
-steady_state_definition                  8:4 # allowed deviation:number of samples
-gpgpu_max_cycle                        0 # terminates gpu simulation early (0 = no limit)
-gpgpu_max_insn                         0 # terminates gpu simulation early (0 = no limit)
-gpgpu_max_cta                          0 # terminates gpu simulation early (0 = no limit)
-gpgpu_runtime_stat                   500 # display runtime statistics such as dram utilization {<freq>:<flag>}
-liveness_message_freq                    1 # Minimum number of seconds between simulation liveness messages (0 = always print)
-gpgpu_flush_l1_cache                    0 # Flush L1 cache at the end of each kernel call
-gpgpu_flush_l2_cache                    0 # Flush L2 cache at the end of each kernel call
-gpgpu_deadlock_detect                    1 # Stop the simulation at deadlock (1=on (default), 0=off)
-gpgpu_ptx_instruction_classification                    0 # if enabled will classify ptx instruction types per kernel (Max 255 kernels now)
-gpgpu_ptx_sim_mode                     0 # Select between Performance (default) or Functional simulation (1)
-gpgpu_clock_domains 700.0:700.0:700.0:924.0 # Clock Domain Frequencies in MhZ {<Core Clock>:<ICNT Clock>:<L2 Clock>:<DRAM Clock>}
-gpgpu_max_concurrent_kernel                    8 # maximum kernels that can run concurrently on GPU
-gpgpu_cflog_interval                    0 # Interval between each snapshot in control flow logger
-visualizer_enabled                     0 # Turn on visualizer output (1=On, 0=Off)
-visualizer_outputfile                 NULL # Specifies the output log file for visualizer
-visualizer_zlevel                      6 # Compression level of the visualizer output log (0=no comp, 9=highest)
-trace_enabled                          0 # Turn on traces
-trace_components                    none # comma seperated list of traces to enable. Complete list found in trace_streams.tup. Default none
-trace_sampling_core                    0 # The core which is printed using CORE_DPRINTF. Default 0
-trace_sampling_memory_partition                   -1 # The memory partition which is printed using MEMPART_DPRINTF. Default -1 (i.e. all)
-enable_ptx_file_line_stats                    1 # Turn on PTX source line statistic profiling. (1 = On)
-ptx_line_stats_filename gpgpu_inst_stats.txt # Output file for PTX source line statistics.
-save_embedded_ptx                      0 # saves ptx files embedded in binary as <n>.ptx
-keep                                   0 # keep intermediate files created by GPGPU-Sim when interfacing with external programs
-gpgpu_ptx_save_converted_ptxplus                    0 # Saved converted ptxplus to a file
-ptx_opcode_latency_int         4,13,4,5,145 # Opcode latencies for integers <ADD,MAX,MUL,MAD,DIV>Default 1,1,19,25,145
-ptx_opcode_latency_fp          4,13,4,5,39 # Opcode latencies for single precision floating points <ADD,MAX,MUL,MAD,DIV>Default 1,1,1,1,30
-ptx_opcode_latency_dp         8,19,8,8,330 # Opcode latencies for double precision floating points <ADD,MAX,MUL,MAD,DIV>Default 8,8,8,8,335
-ptx_opcode_initiation_int            1,2,2,1,8 # Opcode initiation intervals for integers <ADD,MAX,MUL,MAD,DIV>Default 1,1,4,4,32
-ptx_opcode_initiation_fp            1,2,1,1,4 # Opcode initiation intervals for single precision floating points <ADD,MAX,MUL,MAD,DIV>Default 1,1,1,1,5
-ptx_opcode_initiation_dp         8,16,8,8,130 # Opcode initiation intervals for double precision floating points <ADD,MAX,MUL,MAD,DIV>Default 8,8,8,8,130
DRAM Timing Options:
nbk                                    16 # number of banks
CCD                                     2 # column to column delay
RRD                                     6 # minimal delay between activation of rows in different banks
RCD                                    12 # row to column delay
RAS                                    28 # time needed to activate row
RP                                     12 # time needed to precharge (deactivate) row
RC                                     40 # row cycle time
CDLR                                    5 # switching from write to read (changes tWTR)
WR                                     12 # last data-in to row precharge
CL                                     12 # CAS latency
WL                                      4 # Write latency
nbkgrp                                  4 # number of bank groups
CCDL                                    3 # column to column delay between accesses to different bank groups
RTPL                                    2 # read to precharge delay between accesses to different bank groups
Total number of memory sub partition = 12
addr_dec_mask[CHIP]  = 0000000000000000 	high:64 low:0
addr_dec_mask[BK]    = 000000000000e100 	high:16 low:8
addr_dec_mask[ROW]   = 000000000fff0000 	high:28 low:16
addr_dec_mask[COL]   = 0000000000001eff 	high:13 low:0
addr_dec_mask[BURST] = 000000000000003f 	high:6 low:0
sub_partition_id_mask = 0000000000000100
GPGPU-Sim uArch: clock freqs: 700000000.000000:700000000.000000:700000000.000000:924000000.000000
GPGPU-Sim uArch: clock periods: 0.00000000142857142857:0.00000000142857142857:0.00000000142857142857:0.00000000108225108225
*** Initializing Memory Statistics ***
GPGPU-Sim uArch: interconnect node map (shaderID+MemID to icntID)
GPGPU-Sim uArch: Memory nodes ID start from index: 15
GPGPU-Sim uArch:    0   1   2   3   4
GPGPU-Sim uArch:    5   6   7   8   9
GPGPU-Sim uArch:   10  11  12  13  14
GPGPU-Sim uArch:   15  16  17  18  19
GPGPU-Sim uArch:   20  21  22  23  24
GPGPU-Sim uArch:   25  26
GPGPU-Sim uArch: interconnect node reverse map (icntID to shaderID+MemID)
GPGPU-Sim uArch: Memory nodes start from ID: 15
GPGPU-Sim uArch:    0   1   2   3   4
GPGPU-Sim uArch:    5   6   7   8   9
GPGPU-Sim uArch:   10  11  12  13  14
GPGPU-Sim uArch:   15  16  17  18  19
GPGPU-Sim uArch:   20  21  22  23  24
GPGPU-Sim uArch:   25  26
c498d9f32ab5dd92351405d48e0f6df7  /sciclone/data20/adwait/applications/benchmarks/CUDA/BFS/gpgpu_ptx_sim__BFS
GPGPU-Sim uArch: performance model initialization complete.
GPGPU-Sim PTX: __cudaRegisterFatBinary, fat_cubin_handle = 1, filename=bfs.cu
self exe links to: /sciclone/data20/adwait/applications/benchmarks/CUDA/BFS/gpgpu_ptx_sim__BFS
Running md5sum using "md5sum /sciclone/data20/adwait/applications/benchmarks/CUDA/BFS/gpgpu_ptx_sim__BFS "
Parsing file _cuobjdump_complete_output_1lrww1
######### cuobjdump parser ########
## Adding new section ELF
Adding arch: sm_20
Adding identifier: bfs.cu
## Adding new section PTX
Adding ptx filename: _cuobjdump_1.ptx
Adding arch: sm_20
Adding identifier: bfs.cu
Done parsing!!!
GPGPU-Sim PTX: __cudaRegisterFunction _Z6KernelP4NodePiPbS2_S1_S2_i : hostFun 0x0x405636, fat_cubin_handle = 1
GPGPU-Sim PTX: instruction assembly for function '_Z6KernelP4NodePiPbS2_S1_S2_i'...   done.
GPGPU-Sim PTX: finding reconvergence points for '_Z6KernelP4NodePiPbS2_S1_S2_i'...
GPGPU-Sim PTX: Finding dominators for '_Z6KernelP4NodePiPbS2_S1_S2_i'...
GPGPU-Sim PTX: Finding immediate dominators for '_Z6KernelP4NodePiPbS2_S1_S2_i'...
GPGPU-Sim PTX: Finding postdominators for '_Z6KernelP4NodePiPbS2_S1_S2_i'...
GPGPU-Sim PTX: Finding immediate postdominators for '_Z6KernelP4NodePiPbS2_S1_S2_i'...
GPGPU-Sim PTX: pre-decoding instructions for '_Z6KernelP4NodePiPbS2_S1_S2_i'...
GPGPU-Sim PTX: reconvergence points for _Z6KernelP4NodePiPbS2_S1_S2_i...
GPGPU-Sim PTX:  1 (potential) branch divergence @  PC=0x030 (_1.ptx:72) @%p1 bra $Lt_0_5122;
GPGPU-Sim PTX:    immediate post dominator      @  PC=0x1e8 (_1.ptx:141) exit;
GPGPU-Sim PTX:  2 (potential) branch divergence @  PC=0x068 (_1.ptx:79) @%p2 bra $Lt_0_5122;
GPGPU-Sim PTX:    immediate post dominator      @  PC=0x1e8 (_1.ptx:141) exit;
GPGPU-Sim PTX:  3 (potential) branch divergence @  PC=0x0e0 (_1.ptx:97) @%p3 bra $Lt_0_5122;
GPGPU-Sim PTX:    immediate post dominator      @  PC=0x1e8 (_1.ptx:141) exit;
GPGPU-Sim PTX:  4 (potential) branch divergence @  PC=0x138 (_1.ptx:111) @%p4 bra $Lt_0_4354;
GPGPU-Sim PTX:    immediate post dominator      @  PC=0x1c8 (_1.ptx:134) add.s32 %r11, %r11, 1;
GPGPU-Sim PTX:  5 (potential) branch divergence @  PC=0x1e0 (_1.ptx:137) @%p5 bra $Lt_0_4098;
GPGPU-Sim PTX:    immediate post dominator      @  PC=0x1e8 (_1.ptx:141) exit;
GPGPU-Sim PTX: ... end of reconvergence points for _Z6KernelP4NodePiPbS2_S1_S2_i
GPGPU-Sim PTX: ... done pre-decoding instructions for '_Z6KernelP4NodePiPbS2_S1_S2_i'.
GPGPU-Sim PTX: finished parsing EMBEDDED .ptx file _1.ptx
Adding _cuobjdump_1.ptx with cubin handle 1
GPGPU-Sim PTX: extracting embedded .ptx to temporary file "_ptx_dCsDMB"
Running: cat _ptx_dCsDMB | sed 's/.version 1.5/.version 1.4/' | sed 's/, texmode_independent//' | sed 's/\(\.extern \.const\[1\] .b8 \w\+\)\[\]/\1\[1\]/' | sed 's/const\[.\]/const\[0\]/g' > _ptx2_Pxnsuc
GPGPU-Sim PTX: generating ptxinfo using "$CUDA_INSTALL_PATH/bin/ptxas --gpu-name=sm_20 -v _ptx2_Pxnsuc --output-file  /dev/null 2> _ptx_dCsDMBinfo"
GPGPU-Sim PTX: Kernel '_Z6KernelP4NodePiPbS2_S1_S2_i' : regs=18, lmem=0, smem=0, cmem=84
GPGPU-Sim PTX: removing ptxinfo using "rm -f _ptx_dCsDMB _ptx2_Pxnsuc _ptx_dCsDMBinfo"
GPGPU-Sim PTX: loading globals with explicit initializers... 
GPGPU-Sim PTX: finished loading globals (0 bytes total).
GPGPU-Sim PTX: loading constants with explicit initializers...  done.
Reading File
Input file: ./data/graph65536.txt
Read File
Copied Everything to GPU memory

GPGPU-Sim PTX: cudaLaunch for 0x0x405636 (mode=performance simulation) on stream 0
GPGPU-Sim PTX: pushing kernel '_Z6KernelP4NodePiPbS2_S1_S2_i' to stream 0, gridDim= (256,1,1) blockDim = (256,1,1) 
kernel '_Z6KernelP4NodePiPbS2_S1_S2_i' transfer to GPU hardware scheduler
GPGPU-Sim uArch: Shader 1 bind to kernel 1 '_Z6KernelP4NodePiPbS2_S1_S2_i'
GPGPU-Sim uArch: CTA/core = 6, limited by: threads regs
GPGPU-Sim uArch: core:  1, cta: 0 initialized @(1,0)
GPGPU-Sim uArch: Shader 2 bind to kernel 1 '_Z6KernelP4NodePiPbS2_S1_S2_i'
GPGPU-Sim uArch: core:  2, cta: 0 initialized @(1,0)
GPGPU-Sim uArch: Shader 3 bind to kernel 1 '_Z6KernelP4NodePiPbS2_S1_S2_i'
GPGPU-Sim uArch: core:  3, cta: 0 initialized @(1,0)
GPGPU-Sim uArch: Shader 4 bind to kernel 1 '_Z6KernelP4NodePiPbS2_S1_S2_i'
GPGPU-Sim uArch: core:  4, cta: 0 initialized @(1,0)
GPGPU-Sim uArch: Shader 5 bind to kernel 1 '_Z6KernelP4NodePiPbS2_S1_S2_i'
GPGPU-Sim uArch: core:  5, cta: 0 initialized @(1,0)
GPGPU-Sim uArch: Shader 6 bind to kernel 1 '_Z6KernelP4NodePiPbS2_S1_S2_i'
GPGPU-Sim uArch: core:  6, cta: 0 initialized @(1,0)
GPGPU-Sim uArch: Shader 7 bind to kernel 1 '_Z6KernelP4NodePiPbS2_S1_S2_i'
GPGPU-Sim uArch: core:  7, cta: 0 initialized @(1,0)
GPGPU-Sim uArch: Shader 8 bind to kernel 1 '_Z6KernelP4NodePiPbS2_S1_S2_i'
GPGPU-Sim uArch: core:  8, cta: 0 initialized @(1,0)
GPGPU-Sim uArch: Shader 9 bind to kernel 1 '_Z6KernelP4NodePiPbS2_S1_S2_i'
GPGPU-Sim uArch: core:  9, cta: 0 initialized @(1,0)
GPGPU-Sim uArch: Shader 10 bind to kernel 1 '_Z6KernelP4NodePiPbS2_S1_S2_i'
GPGPU-Sim uArch: core: 10, cta: 0 initialized @(1,0)
GPGPU-Sim uArch: Shader 11 bind to kernel 1 '_Z6KernelP4NodePiPbS2_S1_S2_i'
GPGPU-Sim uArch: core: 11, cta: 0 initialized @(1,0)
GPGPU-Sim uArch: Shader 12 bind to kernel 1 '_Z6KernelP4NodePiPbS2_S1_S2_i'
GPGPU-Sim uArch: core: 12, cta: 0 initialized @(1,0)
GPGPU-Sim uArch: Shader 13 bind to kernel 1 '_Z6KernelP4NodePiPbS2_S1_S2_i'
GPGPU-Sim uArch: core: 13, cta: 0 initialized @(1,0)
GPGPU-Sim uArch: Shader 14 bind to kernel 1 '_Z6KernelP4NodePiPbS2_S1_S2_i'
GPGPU-Sim uArch: core: 14, cta: 0 initialized @(1,0)
GPGPU-Sim uArch: Shader 0 bind to kernel 1 '_Z6KernelP4NodePiPbS2_S1_S2_i'
GPGPU-Sim uArch: core:  0, cta: 0 initialized @(1,0)
GPGPU-Sim uArch: core:  1, cta: 1 initialized @(2,0)
GPGPU-Sim uArch: core:  2, cta: 1 initialized @(2,0)
GPGPU-Sim uArch: core:  3, cta: 1 initialized @(2,0)
GPGPU-Sim uArch: core:  4, cta: 1 initialized @(2,0)
GPGPU-Sim uArch: core:  5, cta: 1 initialized @(2,0)
GPGPU-Sim uArch: core:  6, cta: 1 initialized @(2,0)
GPGPU-Sim uArch: core:  7, cta: 1 initialized @(2,0)
GPGPU-Sim uArch: core:  8, cta: 1 initialized @(2,0)
GPGPU-Sim uArch: core:  9, cta: 1 initialized @(2,0)
GPGPU-Sim uArch: core: 10, cta: 1 initialized @(2,0)
GPGPU-Sim uArch: core: 11, cta: 1 initialized @(2,0)
GPGPU-Sim uArch: core: 12, cta: 1 initialized @(2,0)
GPGPU-Sim uArch: core: 13, cta: 1 initialized @(2,0)
GPGPU-Sim uArch: core: 14, cta: 1 initialized @(2,0)
GPGPU-Sim uArch: core:  0, cta: 1 initialized @(2,0)
GPGPU-Sim uArch: core:  1, cta: 2 initialized @(3,0)
GPGPU-Sim uArch: core:  2, cta: 2 initialized @(3,0)
GPGPU-Sim uArch: core:  3, cta: 2 initialized @(3,0)
GPGPU-Sim uArch: core:  4, cta: 2 initialized @(3,0)
GPGPU-Sim uArch: core:  5, cta: 2 initialized @(3,0)
GPGPU-Sim uArch: core:  6, cta: 2 initialized @(3,0)
GPGPU-Sim uArch: core:  7, cta: 2 initialized @(3,0)
GPGPU-Sim uArch: core:  8, cta: 2 initialized @(3,0)
GPGPU-Sim uArch: core:  9, cta: 2 initialized @(3,0)
GPGPU-Sim uArch: core: 10, cta: 2 initialized @(3,0)
GPGPU-Sim uArch: core: 11, cta: 2 initialized @(3,0)
GPGPU-Sim uArch: core: 12, cta: 2 initialized @(3,0)
GPGPU-Sim uArch: core: 13, cta: 2 initialized @(3,0)
GPGPU-Sim uArch: core: 14, cta: 2 initialized @(3,0)
GPGPU-Sim uArch: core:  0, cta: 2 initialized @(3,0)
GPGPU-Sim uArch: core:  1, cta: 3 initialized @(4,0)
GPGPU-Sim uArch: core:  2, cta: 3 initialized @(4,0)
GPGPU-Sim uArch: core:  3, cta: 3 initialized @(4,0)
GPGPU-Sim uArch: core:  4, cta: 3 initialized @(4,0)
GPGPU-Sim uArch: core:  5, cta: 3 initialized @(4,0)
GPGPU-Sim uArch: core:  6, cta: 3 initialized @(4,0)
GPGPU-Sim uArch: core:  7, cta: 3 initialized @(4,0)
GPGPU-Sim uArch: core:  8, cta: 3 initialized @(4,0)
GPGPU-Sim uArch: core:  9, cta: 3 initialized @(4,0)
GPGPU-Sim uArch: core: 10, cta: 3 initialized @(4,0)
GPGPU-Sim uArch: core: 11, cta: 3 initialized @(4,0)
GPGPU-Sim uArch: core: 12, cta: 3 initialized @(4,0)
GPGPU-Sim uArch: core: 13, cta: 3 initialized @(4,0)
GPGPU-Sim uArch: core: 14, cta: 3 initialized @(4,0)
GPGPU-Sim uArch: core:  0, cta: 3 initialized @(4,0)
GPGPU-Sim uArch: core:  1, cta: 4 initialized @(5,0)
GPGPU-Sim uArch: core:  2, cta: 4 initialized @(5,0)
GPGPU-Sim uArch: core:  3, cta: 4 initialized @(5,0)
GPGPU-Sim uArch: core:  4, cta: 4 initialized @(5,0)
GPGPU-Sim uArch: core:  5, cta: 4 initialized @(5,0)
GPGPU-Sim uArch: core:  6, cta: 4 initialized @(5,0)
GPGPU-Sim uArch: core:  7, cta: 4 initialized @(5,0)
GPGPU-Sim uArch: core:  8, cta: 4 initialized @(5,0)
GPGPU-Sim uArch: core:  9, cta: 4 initialized @(5,0)
GPGPU-Sim uArch: core: 10, cta: 4 initialized @(5,0)
GPGPU-Sim uArch: core: 11, cta: 4 initialized @(5,0)
GPGPU-Sim uArch: core: 12, cta: 4 initialized @(5,0)
GPGPU-Sim uArch: core: 13, cta: 4 initialized @(5,0)
GPGPU-Sim uArch: core: 14, cta: 4 initialized @(5,0)
GPGPU-Sim uArch: core:  0, cta: 4 initialized @(5,0)
GPGPU-Sim uArch: core:  1, cta: 5 initialized @(6,0)
GPGPU-Sim uArch: core:  2, cta: 5 initialized @(6,0)
GPGPU-Sim uArch: core:  3, cta: 5 initialized @(6,0)
GPGPU-Sim uArch: core:  4, cta: 5 initialized @(6,0)
GPGPU-Sim uArch: core:  5, cta: 5 initialized @(6,0)
GPGPU-Sim uArch: core:  6, cta: 5 initialized @(6,0)
GPGPU-Sim uArch: core:  7, cta: 5 initialized @(6,0)
GPGPU-Sim uArch: core:  8, cta: 5 initialized @(6,0)
GPGPU-Sim uArch: core:  9, cta: 5 initialized @(6,0)
GPGPU-Sim uArch: core: 10, cta: 5 initialized @(6,0)
GPGPU-Sim uArch: core: 11, cta: 5 initialized @(6,0)
GPGPU-Sim uArch: core: 12, cta: 5 initialized @(6,0)
GPGPU-Sim uArch: core: 13, cta: 5 initialized @(6,0)
GPGPU-Sim uArch: core: 14, cta: 5 initialized @(6,0)
GPGPU-Sim uArch: core:  0, cta: 5 initialized @(6,0)
GPGPU-Sim PTX: 100000 instructions simulated : ctaid=(68,0,0) tid=(63,0,0)
GPGPU-Sim uArch: cycles simulated: 500  inst.: 92032 (ipc=184.1) sim_rate=92032 (inst/sec) elapsed = 0:0:00:01 / Wed Mar  2 01:13:24 2016
GPGPU-Sim PTX: 200000 instructions simulated : ctaid=(58,0,0) tid=(127,0,0)
GPGPU-Sim PTX: 300000 instructions simulated : ctaid=(19,0,0) tid=(221,0,0)
GPGPU-Sim uArch: Shader 2 finished CTA #3 (1261,0), 5 CTAs running
GPGPU-Sim uArch: Shader 2 finished CTA #4 (1261,0), 4 CTAs running
GPGPU-Sim uArch: core:  2, cta: 3 initialized @(1262,0)
GPGPU-Sim uArch: core:  2, cta: 4 initialized @(1263,0)
GPGPU-Sim uArch: Shader 3 finished CTA #0 (1267,0), 5 CTAs running
GPGPU-Sim uArch: Shader 3 finished CTA #1 (1267,0), 4 CTAs running
GPGPU-Sim uArch: Shader 3 finished CTA #2 (1267,0), 3 CTAs running
GPGPU-Sim uArch: Shader 3 finished CTA #3 (1267,0), 2 CTAs running
GPGPU-Sim uArch: core:  3, cta: 0 initialized @(1268,0)
GPGPU-Sim uArch: core:  3, cta: 1 initialized @(1269,0)
GPGPU-Sim uArch: Shader 2 finished CTA #0 (1269,0), 5 CTAs running
GPGPU-Sim uArch: Shader 2 finished CTA #1 (1269,0), 4 CTAs running
GPGPU-Sim uArch: core:  2, cta: 0 initialized @(1270,0)
GPGPU-Sim uArch: core:  3, cta: 2 initialized @(1270,0)
GPGPU-Sim uArch: core:  2, cta: 1 initialized @(1271,0)
GPGPU-Sim uArch: core:  3, cta: 3 initialized @(1271,0)
GPGPU-Sim uArch: Shader 4 finished CTA #0 (1274,0), 5 CTAs running
GPGPU-Sim uArch: Shader 4 finished CTA #1 (1274,0), 4 CTAs running
GPGPU-Sim uArch: Shader 4 finished CTA #2 (1274,0), 3 CTAs running
GPGPU-Sim uArch: Shader 4 finished CTA #3 (1274,0), 2 CTAs running
GPGPU-Sim uArch: core:  4, cta: 0 initialized @(1275,0)
GPGPU-Sim uArch: core:  4, cta: 1 initialized @(1276,0)
GPGPU-Sim uArch: core:  4, cta: 2 initialized @(1277,0)
GPGPU-Sim uArch: core:  4, cta: 3 initialized @(1278,0)
GPGPU-Sim uArch: Shader 0 finished CTA #0 (1280,0), 5 CTAs running
GPGPU-Sim uArch: Shader 0 finished CTA #2 (1280,0), 4 CTAs running
GPGPU-Sim uArch: core:  0, cta: 0 initialized @(1281,0)
GPGPU-Sim uArch: core:  0, cta: 2 initialized @(1282,0)
GPGPU-Sim uArch: Shader 5 finished CTA #0 (1283,0), 5 CTAs running
GPGPU-Sim uArch: Shader 5 finished CTA #1 (1283,0), 4 CTAs running
GPGPU-Sim uArch: Shader 5 finished CTA #2 (1283,0), 3 CTAs running
GPGPU-Sim uArch: Shader 5 finished CTA #3 (1283,0), 2 CTAs running
GPGPU-Sim uArch: core:  5, cta: 0 initialized @(1284,0)
GPGPU-Sim uArch: core:  5, cta: 1 initialized @(1285,0)
GPGPU-Sim uArch: core:  5, cta: 2 initialized @(1286,0)
GPGPU-Sim uArch: Shader 2 finished CTA #5 (1286,0), 5 CTAs running
GPGPU-Sim uArch: core:  2, cta: 5 initialized @(1287,0)
GPGPU-Sim uArch: core:  5, cta: 3 initialized @(1287,0)
GPGPU-Sim uArch: Shader 1 finished CTA #1 (1292,0), 5 CTAs running
GPGPU-Sim uArch: core:  1, cta: 1 initialized @(1293,0)
GPGPU-Sim uArch: Shader 6 finished CTA #5 (1298,0), 5 CTAs running
GPGPU-Sim uArch: Shader 6 finished CTA #0 (1298,0), 4 CTAs running
GPGPU-Sim uArch: Shader 6 finished CTA #1 (1298,0), 3 CTAs running
GPGPU-Sim uArch: Shader 6 finished CTA #2 (1298,0), 2 CTAs running
GPGPU-Sim uArch: core:  6, cta: 0 initialized @(1299,0)
GPGPU-Sim uArch: Shader 1 finished CTA #3 (1299,0), 5 CTAs running
GPGPU-Sim uArch: Shader 1 finished CTA #4 (1299,0), 4 CTAs running
GPGPU-Sim uArch: core:  1, cta: 3 initialized @(1300,0)
GPGPU-Sim uArch: core:  6, cta: 1 initialized @(1300,0)
GPGPU-Sim uArch: core:  1, cta: 4 initialized @(1301,0)
GPGPU-Sim uArch: core:  6, cta: 2 initialized @(1301,0)
GPGPU-Sim uArch: core:  6, cta: 5 initialized @(1302,0)
GPGPU-Sim uArch: Shader 0 finished CTA #1 (1302,0), 5 CTAs running
GPGPU-Sim uArch: Shader 2 finished CTA #2 (1302,0), 5 CTAs running
GPGPU-Sim uArch: core:  0, cta: 1 initialized @(1303,0)
GPGPU-Sim uArch: core:  2, cta: 2 initialized @(1303,0)
GPGPU-Sim uArch: Shader 8 finished CTA #0 (1304,0), 5 CTAs running
GPGPU-Sim uArch: Shader 8 finished CTA #1 (1304,0), 4 CTAs running
GPGPU-Sim uArch: Shader 8 finished CTA #2 (1304,0), 3 CTAs running
GPGPU-Sim uArch: core:  8, cta: 0 initialized @(1305,0)
GPGPU-Sim uArch: core:  8, cta: 1 initialized @(1306,0)
GPGPU-Sim uArch: Shader 6 finished CTA #4 (1306,0), 5 CTAs running
GPGPU-Sim uArch: core:  6, cta: 4 initialized @(1307,0)
GPGPU-Sim uArch: core:  8, cta: 2 initialized @(1307,0)
GPGPU-Sim uArch: Shader 7 finished CTA #0 (1307,0), 5 CTAs running
GPGPU-Sim uArch: Shader 7 finished CTA #1 (1307,0), 4 CTAs running
GPGPU-Sim uArch: Shader 7 finished CTA #2 (1307,0), 3 CTAs running
GPGPU-Sim uArch: core:  7, cta: 0 initialized @(1308,0)
GPGPU-Sim uArch: Shader 3 finished CTA #4 (1308,0), 5 CTAs running
GPGPU-Sim uArch: Shader 3 finished CTA #5 (1308,0), 4 CTAs running
GPGPU-Sim uArch: core:  3, cta: 4 initialized @(1309,0)
GPGPU-Sim uArch: core:  7, cta: 1 initialized @(1309,0)
GPGPU-Sim uArch: Shader 1 finished CTA #2 (1309,0), 5 CTAs running
GPGPU-Sim uArch: core:  1, cta: 2 initialized @(1310,0)
GPGPU-Sim uArch: core:  3, cta: 5 initialized @(1310,0)
GPGPU-Sim uArch: core:  7, cta: 2 initialized @(1310,0)
GPGPU-Sim uArch: Shader 0 finished CTA #3 (1310,0), 5 CTAs running
GPGPU-Sim uArch: Shader 0 finished CTA #4 (1310,0), 4 CTAs running
GPGPU-Sim uArch: Shader 0 finished CTA #5 (1310,0), 3 CTAs running
GPGPU-Sim uArch: core:  0, cta: 3 initialized @(1311,0)
GPGPU-Sim uArch: core:  0, cta: 4 initialized @(1312,0)
GPGPU-Sim uArch: core:  0, cta: 5 initialized @(1313,0)
GPGPU-Sim uArch: Shader 4 finished CTA #4 (1318,0), 5 CTAs running
GPGPU-Sim uArch: Shader 4 finished CTA #5 (1318,0), 4 CTAs running
GPGPU-Sim uArch: Shader 8 finished CTA #5 (1318,0), 5 CTAs running
GPGPU-Sim uArch: core:  4, cta: 4 initialized @(1319,0)
GPGPU-Sim uArch: core:  8, cta: 5 initialized @(1319,0)
GPGPU-Sim uArch: Shader 9 finished CTA #4 (1319,0), 5 CTAs running
GPGPU-Sim uArch: Shader 9 finished CTA #5 (1319,0), 4 CTAs running
GPGPU-Sim uArch: Shader 9 finished CTA #0 (1319,0), 3 CTAs running
GPGPU-Sim uArch: Shader 9 finished CTA #1 (1319,0), 2 CTAs running
GPGPU-Sim uArch: core:  9, cta: 0 initialized @(1320,0)
GPGPU-Sim uArch: core:  4, cta: 5 initialized @(1320,0)
GPGPU-Sim uArch: Shader 5 finished CTA #4 (1320,0), 5 CTAs running
GPGPU-Sim uArch: Shader 5 finished CTA #5 (1320,0), 4 CTAs running
GPGPU-Sim uArch: Shader 10 finished CTA #4 (1320,0), 5 CTAs running
GPGPU-Sim uArch: Shader 10 finished CTA #0 (1320,0), 4 CTAs running
GPGPU-Sim uArch: Shader 10 finished CTA #1 (1320,0), 3 CTAs running
GPGPU-Sim uArch: core:  5, cta: 4 initialized @(1321,0)
GPGPU-Sim uArch: core:  9, cta: 1 initialized @(1321,0)
GPGPU-Sim uArch: core: 10, cta: 0 initialized @(1321,0)
GPGPU-Sim uArch: core:  5, cta: 5 initialized @(1322,0)
GPGPU-Sim uArch: core:  9, cta: 4 initialized @(1322,0)
GPGPU-Sim uArch: core: 10, cta: 1 initialized @(1322,0)
GPGPU-Sim uArch: core:  9, cta: 5 initialized @(1323,0)
GPGPU-Sim uArch: core: 10, cta: 4 initialized @(1323,0)
GPGPU-Sim uArch: Shader 12 finished CTA #0 (1324,0), 5 CTAs running
GPGPU-Sim uArch: core: 12, cta: 0 initialized @(1325,0)
GPGPU-Sim uArch: Shader 1 finished CTA #5 (1325,0), 5 CTAs running
GPGPU-Sim uArch: core:  1, cta: 5 initialized @(1326,0)
GPGPU-Sim uArch: Shader 12 finished CTA #3 (1332,0), 5 CTAs running
GPGPU-Sim uArch: Shader 12 finished CTA #4 (1332,0), 4 CTAs running
GPGPU-Sim uArch: Shader 14 finished CTA #3 (1332,0), 5 CTAs running
GPGPU-Sim uArch: Shader 14 finished CTA #4 (1332,0), 4 CTAs running
GPGPU-Sim uArch: core: 12, cta: 3 initialized @(1333,0)
GPGPU-Sim uArch: core: 14, cta: 3 initialized @(1333,0)
GPGPU-Sim uArch: core: 12, cta: 4 initialized @(1334,0)
GPGPU-Sim uArch: core: 14, cta: 4 initialized @(1334,0)
GPGPU-Sim uArch: Shader 7 finished CTA #3 (1336,0), 5 CTAs running
GPGPU-Sim uArch: Shader 7 finished CTA #4 (1336,0), 4 CTAs running
GPGPU-Sim uArch: Shader 7 finished CTA #5 (1336,0), 3 CTAs running
GPGPU-Sim uArch: core:  7, cta: 3 initialized @(1337,0)
GPGPU-Sim uArch: core:  7, cta: 4 initialized @(1338,0)
GPGPU-Sim uArch: Shader 6 finished CTA #3 (1338,0), 5 CTAs running
GPGPU-Sim uArch: Shader 10 finished CTA #5 (1338,0), 5 CTAs running
GPGPU-Sim uArch: core: 10, cta: 5 initialized @(1339,0)
GPGPU-Sim uArch: core:  6, cta: 3 initialized @(1339,0)
GPGPU-Sim uArch: core:  7, cta: 5 initialized @(1339,0)
GPGPU-Sim uArch: Shader 13 finished CTA #3 (1339,0), 5 CTAs running
GPGPU-Sim uArch: core: 13, cta: 3 initialized @(1340,0)
GPGPU-Sim uArch: Shader 14 finished CTA #0 (1340,0), 5 CTAs running
GPGPU-Sim uArch: Shader 14 finished CTA #1 (1340,0), 4 CTAs running
GPGPU-Sim uArch: core: 14, cta: 0 initialized @(1341,0)
GPGPU-Sim uArch: core: 14, cta: 1 initialized @(1342,0)
GPGPU-Sim uArch: Shader 8 finished CTA #3 (1342,0), 5 CTAs running
GPGPU-Sim uArch: Shader 8 finished CTA #4 (1342,0), 4 CTAs running
GPGPU-Sim uArch: core:  8, cta: 3 initialized @(1343,0)
GPGPU-Sim uArch: core:  8, cta: 4 initialized @(1344,0)
GPGPU-Sim uArch: Shader 12 finished CTA #1 (1344,0), 5 CTAs running
GPGPU-Sim uArch: Shader 12 finished CTA #2 (1344,0), 4 CTAs running
GPGPU-Sim uArch: core: 12, cta: 1 initialized @(1345,0)
GPGPU-Sim uArch: Shader 11 finished CTA #4 (1345,0), 5 CTAs running
GPGPU-Sim uArch: Shader 11 finished CTA #5 (1345,0), 4 CTAs running
GPGPU-Sim uArch: Shader 11 finished CTA #0 (1345,0), 3 CTAs running
GPGPU-Sim uArch: Shader 11 finished CTA #1 (1345,0), 2 CTAs running
GPGPU-Sim uArch: core: 11, cta: 0 initialized @(1346,0)
GPGPU-Sim uArch: core: 12, cta: 2 initialized @(1346,0)
GPGPU-Sim uArch: core: 11, cta: 1 initialized @(1347,0)
GPGPU-Sim uArch: Shader 13 finished CTA #0 (1347,0), 5 CTAs running
GPGPU-Sim uArch: Shader 13 finished CTA #1 (1347,0), 4 CTAs running
GPGPU-Sim uArch: core: 13, cta: 0 initialized @(1348,0)
GPGPU-Sim uArch: core: 11, cta: 4 initialized @(1348,0)
GPGPU-Sim uArch: core: 13, cta: 1 initialized @(1349,0)
GPGPU-Sim uArch: core: 11, cta: 5 initialized @(1349,0)
GPGPU-Sim uArch: Shader 10 finished CTA #2 (1354,0), 5 CTAs running
GPGPU-Sim uArch: Shader 10 finished CTA #3 (1354,0), 4 CTAs running
GPGPU-Sim uArch: core: 10, cta: 2 initialized @(1355,0)
GPGPU-Sim uArch: core: 10, cta: 3 initialized @(1356,0)
GPGPU-Sim uArch: Shader 9 finished CTA #2 (1356,0), 5 CTAs running
GPGPU-Sim uArch: Shader 9 finished CTA #3 (1356,0), 4 CTAs running
GPGPU-Sim uArch: core:  9, cta: 2 initialized @(1357,0)
GPGPU-Sim uArch: core:  9, cta: 3 initialized @(1358,0)
GPGPU-Sim uArch: Shader 14 finished CTA #5 (1358,0), 5 CTAs running
GPGPU-Sim uArch: core: 14, cta: 5 initialized @(1359,0)
GPGPU-Sim uArch: Shader 12 finished CTA #5 (1360,0), 5 CTAs running
GPGPU-Sim uArch: core: 12, cta: 5 initialized @(1361,0)
GPGPU-Sim uArch: Shader 13 finished CTA #4 (1362,0), 5 CTAs running
GPGPU-Sim uArch: Shader 13 finished CTA #5 (1362,0), 4 CTAs running
GPGPU-Sim uArch: core: 13, cta: 4 initialized @(1363,0)
GPGPU-Sim uArch: core: 13, cta: 5 initialized @(1364,0)
GPGPU-Sim uArch: Shader 14 finished CTA #2 (1374,0), 5 CTAs running
GPGPU-Sim uArch: core: 14, cta: 2 initialized @(1375,0)
GPGPU-Sim uArch: Shader 13 finished CTA #2 (1378,0), 5 CTAs running
GPGPU-Sim uArch: core: 13, cta: 2 initialized @(1379,0)
GPGPU-Sim PTX: 400000 instructions simulated : ctaid=(99,0,0) tid=(182,0,0)
GPGPU-Sim uArch: Shader 11 finished CTA #2 (1380,0), 5 CTAs running
GPGPU-Sim uArch: Shader 11 finished CTA #3 (1380,0), 4 CTAs running
GPGPU-Sim uArch: core: 11, cta: 2 initialized @(1381,0)
GPGPU-Sim uArch: core: 11, cta: 3 initialized @(1382,0)
GPGPU-Sim PTX: 500000 instructions simulated : ctaid=(149,0,0) tid=(53,0,0)
GPGPU-Sim uArch: cycles simulated: 1500  inst.: 464936 (ipc=310.0) sim_rate=232468 (inst/sec) elapsed = 0:0:00:02 / Wed Mar  2 01:13:25 2016
GPGPU-Sim PTX: 600000 instructions simulated : ctaid=(168,0,0) tid=(21,0,0)
GPGPU-Sim uArch: Shader 1 finished CTA #1 (1779,0), 5 CTAs running
GPGPU-Sim uArch: core:  1, cta: 1 initialized @(1780,0)
GPGPU-Sim uArch: Shader 2 finished CTA #3 (1782,0), 5 CTAs running
GPGPU-Sim uArch: Shader 3 finished CTA #0 (1782,0), 5 CTAs running
GPGPU-Sim uArch: Shader 3 finished CTA #1 (1782,0), 4 CTAs running
GPGPU-Sim uArch: core:  2, cta: 3 initialized @(1783,0)
GPGPU-Sim uArch: core:  3, cta: 0 initialized @(1783,0)
GPGPU-Sim uArch: core:  3, cta: 1 initialized @(1784,0)
GPGPU-Sim uArch: Shader 5 finished CTA #1 (1804,0), 5 CTAs running
GPGPU-Sim uArch: core:  5, cta: 1 initialized @(1805,0)
GPGPU-Sim uArch: Shader 4 finished CTA #0 (1814,0), 5 CTAs running
GPGPU-Sim uArch: core:  4, cta: 0 initialized @(1815,0)
GPGPU-Sim uArch: Shader 1 finished CTA #4 (1819,0), 5 CTAs running
GPGPU-Sim uArch: Shader 5 finished CTA #0 (1819,0), 5 CTAs running
GPGPU-Sim uArch: core:  5, cta: 0 initialized @(1820,0)
GPGPU-Sim uArch: core:  1, cta: 4 initialized @(1820,0)
GPGPU-Sim uArch: Shader 4 finished CTA #1 (1826,0), 5 CTAs running
GPGPU-Sim uArch: core:  4, cta: 1 initialized @(1827,0)
GPGPU-Sim uArch: Shader 0 finished CTA #0 (1832,0), 5 CTAs running
GPGPU-Sim uArch: core:  0, cta: 0 initialized @(1833,0)
GPGPU-Sim uArch: Shader 8 finished CTA #0 (1834,0), 5 CTAs running
GPGPU-Sim uArch: core:  8, cta: 0 initialized @(1835,0)
GPGPU-Sim uArch: Shader 2 finished CTA #0 (1838,0), 5 CTAs running
GPGPU-Sim uArch: Shader 2 finished CTA #1 (1838,0), 4 CTAs running
GPGPU-Sim uArch: Shader 3 finished CTA #2 (1838,0), 5 CTAs running
GPGPU-Sim uArch: Shader 3 finished CTA #3 (1838,0), 4 CTAs running
GPGPU-Sim uArch: core:  2, cta: 0 initialized @(1839,0)
GPGPU-Sim uArch: core:  3, cta: 2 initialized @(1839,0)
GPGPU-Sim uArch: core:  2, cta: 1 initialized @(1840,0)
GPGPU-Sim uArch: core:  3, cta: 3 initialized @(1840,0)
GPGPU-Sim uArch: Shader 0 finished CTA #1 (1841,0), 5 CTAs running
GPGPU-Sim uArch: core:  0, cta: 1 initialized @(1842,0)
GPGPU-Sim uArch: Shader 2 finished CTA #4 (1846,0), 5 CTAs running
GPGPU-Sim uArch: core:  2, cta: 4 initialized @(1847,0)
GPGPU-Sim uArch: Shader 1 finished CTA #3 (1847,0), 5 CTAs running
GPGPU-Sim uArch: core:  1, cta: 3 initialized @(1848,0)
GPGPU-Sim uArch: Shader 5 finished CTA #2 (1849,0), 5 CTAs running
GPGPU-Sim uArch: Shader 5 finished CTA #3 (1849,0), 4 CTAs running
GPGPU-Sim uArch: core:  5, cta: 2 initialized @(1850,0)
GPGPU-Sim uArch: core:  5, cta: 3 initialized @(1851,0)
GPGPU-Sim uArch: Shader 6 finished CTA #0 (1856,0), 5 CTAs running
GPGPU-Sim uArch: core:  6, cta: 0 initialized @(1857,0)
GPGPU-Sim uArch: Shader 7 finished CTA #0 (1861,0), 5 CTAs running
GPGPU-Sim uArch: core:  7, cta: 0 initialized @(1862,0)
GPGPU-Sim uArch: Shader 9 finished CTA #5 (1863,0), 5 CTAs running
GPGPU-Sim uArch: core:  9, cta: 5 initialized @(1864,0)
GPGPU-Sim uArch: Shader 6 finished CTA #2 (1864,0), 5 CTAs running
GPGPU-Sim uArch: core:  6, cta: 2 initialized @(1865,0)
GPGPU-Sim uArch: Shader 11 finished CTA #4 (1874,0), 5 CTAs running
GPGPU-Sim uArch: core: 11, cta: 4 initialized @(1875,0)
GPGPU-Sim uArch: Shader 4 finished CTA #2 (1877,0), 5 CTAs running
GPGPU-Sim uArch: core:  4, cta: 2 initialized @(1878,0)
GPGPU-Sim uArch: Shader 8 finished CTA #1 (1880,0), 5 CTAs running
GPGPU-Sim uArch: Shader 8 finished CTA #2 (1880,0), 4 CTAs running
GPGPU-Sim uArch: core:  8, cta: 1 initialized @(1881,0)
GPGPU-Sim uArch: core:  8, cta: 2 initialized @(1882,0)
GPGPU-Sim uArch: Shader 0 finished CTA #2 (1890,0), 5 CTAs running
GPGPU-Sim uArch: core:  0, cta: 2 initialized @(1891,0)
GPGPU-Sim uArch: Shader 4 finished CTA #3 (1902,0), 5 CTAs running
GPGPU-Sim uArch: core:  4, cta: 3 initialized @(1903,0)
GPGPU-Sim uArch: Shader 12 finished CTA #0 (1903,0), 5 CTAs running
GPGPU-Sim uArch: core: 12, cta: 0 initialized @(1904,0)
GPGPU-Sim uArch: Shader 6 finished CTA #1 (1904,0), 5 CTAs running
GPGPU-Sim uArch: core:  6, cta: 1 initialized @(1905,0)
GPGPU-Sim uArch: Shader 7 finished CTA #1 (1905,0), 5 CTAs running
GPGPU-Sim uArch: Shader 7 finished CTA #2 (1905,0), 4 CTAs running
GPGPU-Sim uArch: core:  7, cta: 1 initialized @(1906,0)
GPGPU-Sim uArch: core:  7, cta: 2 initialized @(1907,0)
GPGPU-Sim uArch: Shader 8 finished CTA #5 (1907,0), 5 CTAs running
GPGPU-Sim uArch: Shader 10 finished CTA #4 (1907,0), 5 CTAs running
GPGPU-Sim uArch: core:  8, cta: 5 initialized @(1908,0)
GPGPU-Sim uArch: core: 10, cta: 4 initialized @(1908,0)
GPGPU-Sim uArch: Shader 13 finished CTA #1 (1909,0), 5 CTAs running
GPGPU-Sim uArch: core: 13, cta: 1 initialized @(1910,0)
GPGPU-Sim uArch: Shader 10 finished CTA #1 (1916,0), 5 CTAs running
GPGPU-Sim uArch: core: 10, cta: 1 initialized @(1917,0)
GPGPU-Sim uArch: Shader 9 finished CTA #0 (1918,0), 5 CTAs running
GPGPU-Sim uArch: core:  9, cta: 0 initialized @(1919,0)
GPGPU-Sim PTX: 700000 instructions simulated : ctaid=(197,0,0) tid=(13,0,0)
GPGPU-Sim uArch: Shader 11 finished CTA #5 (1933,0), 5 CTAs running
GPGPU-Sim uArch: core: 11, cta: 5 initialized @(1934,0)
GPGPU-Sim uArch: Shader 1 finished CTA #2 (1934,0), 5 CTAs running
GPGPU-Sim uArch: core:  1, cta: 2 initialized @(1935,0)
GPGPU-Sim uArch: Shader 14 finished CTA #0 (1938,0), 5 CTAs running
GPGPU-Sim uArch: Shader 14 finished CTA #1 (1938,0), 4 CTAs running
GPGPU-Sim uArch: core: 14, cta: 0 initialized @(1939,0)
GPGPU-Sim uArch: core: 14, cta: 1 initialized @(1940,0)
GPGPU-Sim uArch: Shader 12 finished CTA #3 (1941,0), 5 CTAs running
GPGPU-Sim uArch: core: 12, cta: 3 initialized @(1942,0)
GPGPU-Sim uArch: Shader 3 finished CTA #4 (1949,0), 5 CTAs running
GPGPU-Sim uArch: core:  3, cta: 4 initialized @(1950,0)
GPGPU-Sim uArch: Shader 13 finished CTA #3 (1952,0), 5 CTAs running
GPGPU-Sim uArch: core: 13, cta: 3 initialized @(1953,0)
GPGPU-Sim uArch: Shader 14 finished CTA #3 (1958,0), 5 CTAs running
GPGPU-Sim uArch: core: 14, cta: 3 initialized @(1959,0)
GPGPU-Sim uArch: Shader 6 finished CTA #4 (1963,0), 5 CTAs running
GPGPU-Sim uArch: Shader 6 finished CTA #5 (1963,0), 4 CTAs running
GPGPU-Sim uArch: core:  6, cta: 4 initialized @(1964,0)
GPGPU-Sim uArch: Shader 2 finished CTA #5 (1964,0), 5 CTAs running
GPGPU-Sim uArch: core:  2, cta: 5 initialized @(1965,0)
GPGPU-Sim uArch: core:  6, cta: 5 initialized @(1965,0)
GPGPU-Sim uArch: Shader 1 finished CTA #5 (1979,0), 5 CTAs running
GPGPU-Sim uArch: core:  1, cta: 5 initialized @(1980,0)
GPGPU-Sim uArch: Shader 2 finished CTA #2 (1980,0), 5 CTAs running
GPGPU-Sim uArch: core:  2, cta: 2 initialized @(1981,0)
GPGPU-Sim uArch: Shader 0 finished CTA #3 (1986,0), 5 CTAs running
GPGPU-Sim uArch: Shader 0 finished CTA #4 (1986,0), 4 CTAs running
GPGPU-Sim uArch: core:  0, cta: 3 initialized @(1987,0)
GPGPU-Sim uArch: core:  0, cta: 4 initialized @(1988,0)
GPGPU-Sim uArch: Shader 3 finished CTA #5 (1997,0), 5 CTAs running
GPGPU-Sim uArch: Shader 9 finished CTA #4 (1997,0), 5 CTAs running
GPGPU-Sim uArch: core:  3, cta: 5 initialized @(1998,0)
GPGPU-Sim uArch: core:  9, cta: 4 initialized @(1998,0)
GPGPU-Sim uArch: cycles simulated: 2000  inst.: 705649 (ipc=352.8) sim_rate=235216 (inst/sec) elapsed = 0:0:00:03 / Wed Mar  2 01:13:26 2016
GPGPU-Sim uArch: Shader 10 finished CTA #2 (2001,0), 5 CTAs running
GPGPU-Sim uArch: core: 10, cta: 2 initialized @(2002,0)
GPGPU-Sim uArch: Shader 11 finished CTA #2 (2009,0), 5 CTAs running
GPGPU-Sim uArch: core: 11, cta: 2 initialized @(2010,0)
GPGPU-Sim uArch: Shader 9 finished CTA #2 (2011,0), 5 CTAs running
GPGPU-Sim uArch: core:  9, cta: 2 initialized @(2012,0)
GPGPU-Sim uArch: Shader 4 finished CTA #4 (2014,0), 5 CTAs running
GPGPU-Sim uArch: core:  4, cta: 4 initialized @(2015,0)
GPGPU-Sim uArch: Shader 10 finished CTA #0 (2021,0), 5 CTAs running
GPGPU-Sim uArch: core: 10, cta: 0 initialized @(2022,0)
GPGPU-Sim uArch: Shader 12 finished CTA #4 (2025,0), 5 CTAs running
GPGPU-Sim uArch: core: 12, cta: 4 initialized @(2026,0)
GPGPU-Sim uArch: Shader 6 finished CTA #3 (2028,0), 5 CTAs running
GPGPU-Sim uArch: core:  6, cta: 3 initialized @(2029,0)
GPGPU-Sim uArch: Shader 7 finished CTA #5 (2030,0), 5 CTAs running
GPGPU-Sim uArch: core:  7, cta: 5 initialized @(2031,0)
GPGPU-Sim uArch: Shader 0 finished CTA #5 (2034,0), 5 CTAs running
GPGPU-Sim uArch: core:  0, cta: 5 initialized @(2035,0)
GPGPU-Sim uArch: Shader 9 finished CTA #1 (2035,0), 5 CTAs running
GPGPU-Sim uArch: Shader 11 finished CTA #1 (2035,0), 5 CTAs running
GPGPU-Sim uArch: core:  9, cta: 1 initialized @(2036,0)
GPGPU-Sim uArch: core: 11, cta: 1 initialized @(2036,0)
GPGPU-Sim uArch: Shader 10 finished CTA #3 (2037,0), 5 CTAs running
GPGPU-Sim uArch: core: 10, cta: 3 initialized @(2038,0)
GPGPU-Sim uArch: Shader 13 finished CTA #2 (2040,0), 5 CTAs running
GPGPU-Sim uArch: core: 13, cta: 2 initialized @(2041,0)
GPGPU-Sim PTX: 800000 instructions simulated : ctaid=(138,0,0) tid=(107,0,0)
GPGPU-Sim uArch: Shader 8 finished CTA #3 (2043,0), 5 CTAs running
GPGPU-Sim uArch: Shader 11 finished CTA #3 (2043,0), 5 CTAs running
GPGPU-Sim uArch: core:  8, cta: 3 initialized @(2044,0)
GPGPU-Sim uArch: core: 11, cta: 3 initialized @(2044,0)
GPGPU-Sim uArch: Shader 10 finished CTA #5 (2044,0), 5 CTAs running
GPGPU-Sim uArch: core: 10, cta: 5 initialized @(2045,0)
GPGPU-Sim uArch: Shader 7 finished CTA #3 (2048,0), 5 CTAs running
GPGPU-Sim uArch: Shader 7 finished CTA #4 (2048,0), 4 CTAs running
GPGPU-Sim uArch: core:  7, cta: 3 initialized @(2049,0)
GPGPU-Sim uArch: core:  7, cta: 4 initialized @(2050,0)
GPGPU-Sim uArch: Shader 4 finished CTA #5 (2052,0), 5 CTAs running
GPGPU-Sim uArch: core:  4, cta: 5 initialized @(2053,0)
GPGPU-Sim uArch: Shader 11 finished CTA #0 (2053,0), 5 CTAs running
GPGPU-Sim uArch: core: 11, cta: 0 initialized @(2054,0)
GPGPU-Sim uArch: Shader 5 finished CTA #4 (2058,0), 5 CTAs running
GPGPU-Sim uArch: Shader 12 finished CTA #1 (2058,0), 5 CTAs running
GPGPU-Sim uArch: Shader 12 finished CTA #2 (2058,0), 4 CTAs running
GPGPU-Sim uArch: core: 12, cta: 1 initialized @(2059,0)
GPGPU-Sim uArch: Shader 13 finished CTA #0 (2064,0), 5 CTAs running
GPGPU-Sim uArch: Shader 5 finished CTA #5 (2071,0), 4 CTAs running
GPGPU-Sim uArch: Shader 9 finished CTA #3 (2079,0), 5 CTAs running
GPGPU-Sim uArch: Shader 8 finished CTA #4 (2082,0), 5 CTAs running
GPGPU-Sim uArch: Shader 13 finished CTA #4 (2083,0), 4 CTAs running
GPGPU-Sim uArch: Shader 13 finished CTA #5 (2083,0), 3 CTAs running
GPGPU-Sim uArch: Shader 14 finished CTA #2 (2101,0), 5 CTAs running
GPGPU-Sim uArch: Shader 12 finished CTA #5 (2106,0), 4 CTAs running
GPGPU-Sim uArch: Shader 14 finished CTA #4 (2109,0), 4 CTAs running
GPGPU-Sim uArch: Shader 14 finished CTA #5 (2109,0), 3 CTAs running
GPGPU-Sim uArch: Shader 1 finished CTA #1 (2175,0), 5 CTAs running
GPGPU-Sim PTX: 900000 instructions simulated : ctaid=(237,0,0) tid=(11,0,0)
GPGPU-Sim uArch: Shader 9 finished CTA #5 (2241,0), 4 CTAs running
GPGPU-Sim uArch: Shader 2 finished CTA #3 (2246,0), 5 CTAs running
GPGPU-Sim uArch: Shader 4 finished CTA #0 (2248,0), 5 CTAs running
GPGPU-Sim uArch: Shader 5 finished CTA #1 (2253,0), 3 CTAs running
GPGPU-Sim uArch: Shader 3 finished CTA #0 (2261,0), 5 CTAs running
GPGPU-Sim uArch: Shader 0 finished CTA #0 (2266,0), 5 CTAs running
GPGPU-Sim uArch: Shader 5 finished CTA #0 (2270,0), 2 CTAs running
GPGPU-Sim uArch: Shader 8 finished CTA #0 (2278,0), 4 CTAs running
GPGPU-Sim uArch: Shader 7 finished CTA #0 (2287,0), 5 CTAs running
GPGPU-Sim uArch: Shader 4 finished CTA #1 (2294,0), 4 CTAs running
GPGPU-Sim uArch: Shader 1 finished CTA #4 (2296,0), 4 CTAs running
GPGPU-Sim uArch: Shader 11 finished CTA #4 (2303,0), 5 CTAs running
GPGPU-Sim uArch: Shader 12 finished CTA #0 (2304,0), 3 CTAs running
GPGPU-Sim uArch: Shader 3 finished CTA #1 (2311,0), 4 CTAs running
GPGPU-Sim uArch: Shader 13 finished CTA #1 (2313,0), 2 CTAs running
GPGPU-Sim uArch: Shader 1 finished CTA #3 (2318,0), 3 CTAs running
GPGPU-Sim uArch: Shader 5 finished CTA #2 (2322,0), 1 CTAs running
GPGPU-Sim uArch: Shader 0 finished CTA #1 (2335,0), 4 CTAs running
GPGPU-Sim uArch: Shader 6 finished CTA #0 (2344,0), 5 CTAs running
GPGPU-Sim uArch: Shader 3 finished CTA #2 (2355,0), 3 CTAs running
GPGPU-Sim uArch: Shader 2 finished CTA #0 (2363,0), 4 CTAs running
GPGPU-Sim uArch: Shader 2 finished CTA #1 (2363,0), 3 CTAs running
GPGPU-Sim uArch: Shader 6 finished CTA #2 (2372,0), 4 CTAs running
GPGPU-Sim uArch: Shader 2 finished CTA #4 (2376,0), 2 CTAs running
GPGPU-Sim uArch: Shader 10 finished CTA #4 (2384,0), 5 CTAs running
GPGPU-Sim uArch: Shader 4 finished CTA #2 (2386,0), 3 CTAs running
GPGPU-Sim uArch: Shader 8 finished CTA #1 (2388,0), 3 CTAs running
GPGPU-Sim uArch: Shader 1 finished CTA #2 (2396,0), 2 CTAs running
GPGPU-Sim uArch: Shader 5 finished CTA #3 (2397,0), 0 CTAs running
GPGPU-Sim uArch: Shader 5 empty (release kernel 1 '_Z6KernelP4NodePiPbS2_S1_S2_i').
GPGPU-Sim uArch: Shader 9 finished CTA #0 (2397,0), 3 CTAs running
GPGPU-Sim uArch: Shader 14 finished CTA #0 (2399,0), 2 CTAs running
GPGPU-Sim uArch: Shader 3 finished CTA #3 (2406,0), 2 CTAs running
GPGPU-Sim uArch: Shader 14 finished CTA #1 (2408,0), 1 CTAs running
GPGPU-Sim uArch: Shader 12 finished CTA #3 (2415,0), 2 CTAs running
GPGPU-Sim uArch: Shader 8 finished CTA #2 (2420,0), 2 CTAs running
GPGPU-Sim uArch: Shader 4 finished CTA #3 (2421,0), 2 CTAs running
GPGPU-Sim uArch: Shader 1 finished CTA #5 (2425,0), 1 CTAs running
GPGPU-Sim uArch: Shader 7 finished CTA #2 (2426,0), 4 CTAs running
GPGPU-Sim uArch: Shader 8 finished CTA #5 (2426,0), 1 CTAs running
GPGPU-Sim uArch: Shader 7 finished CTA #1 (2433,0), 3 CTAs running
GPGPU-Sim uArch: Shader 13 finished CTA #3 (2433,0), 1 CTAs running
GPGPU-Sim uArch: Shader 0 finished CTA #2 (2436,0), 3 CTAs running
GPGPU-Sim uArch: Shader 10 finished CTA #1 (2442,0), 4 CTAs running
GPGPU-Sim uArch: Shader 6 finished CTA #1 (2446,0), 3 CTAs running
GPGPU-Sim uArch: Shader 14 finished CTA #3 (2446,0), 0 CTAs running
GPGPU-Sim uArch: Shader 14 empty (release kernel 1 '_Z6KernelP4NodePiPbS2_S1_S2_i').
GPGPU-Sim uArch: Shader 2 finished CTA #5 (2448,0), 1 CTAs running
GPGPU-Sim uArch: Shader 11 finished CTA #5 (2453,0), 4 CTAs running
GPGPU-Sim uArch: Shader 3 finished CTA #4 (2457,0), 1 CTAs running
GPGPU-Sim uArch: Shader 12 finished CTA #4 (2466,0), 1 CTAs running
GPGPU-Sim uArch: Shader 3 finished CTA #5 (2470,0), 0 CTAs running
GPGPU-Sim uArch: Shader 3 empty (release kernel 1 '_Z6KernelP4NodePiPbS2_S1_S2_i').
GPGPU-Sim uArch: Shader 13 finished CTA #2 (2471,0), 0 CTAs running
GPGPU-Sim uArch: Shader 13 empty (release kernel 1 '_Z6KernelP4NodePiPbS2_S1_S2_i').
GPGPU-Sim uArch: Shader 8 finished CTA #3 (2474,0), 0 CTAs running
GPGPU-Sim uArch: Shader 8 empty (release kernel 1 '_Z6KernelP4NodePiPbS2_S1_S2_i').
GPGPU-Sim uArch: Shader 4 finished CTA #4 (2475,0), 1 CTAs running
GPGPU-Sim uArch: Shader 2 finished CTA #2 (2488,0), 0 CTAs running
GPGPU-Sim uArch: Shader 2 empty (release kernel 1 '_Z6KernelP4NodePiPbS2_S1_S2_i').
GPGPU-Sim uArch: Shader 9 finished CTA #4 (2491,0), 2 CTAs running
GPGPU-Sim uArch: Shader 9 finished CTA #2 (2493,0), 1 CTAs running
GPGPU-Sim uArch: Shader 6 finished CTA #4 (2494,0), 2 CTAs running
GPGPU-Sim uArch: Shader 4 finished CTA #5 (2498,0), 0 CTAs running
GPGPU-Sim uArch: Shader 4 empty (release kernel 1 '_Z6KernelP4NodePiPbS2_S1_S2_i').
GPGPU-Sim uArch: Shader 0 finished CTA #3 (2499,0), 2 CTAs running
GPGPU-Sim uArch: Shader 0 finished CTA #4 (2510,0), 1 CTAs running
GPGPU-Sim uArch: Shader 12 finished CTA #1 (2511,0), 0 CTAs running
GPGPU-Sim uArch: Shader 12 empty (release kernel 1 '_Z6KernelP4NodePiPbS2_S1_S2_i').
GPGPU-Sim uArch: Shader 6 finished CTA #5 (2516,0), 1 CTAs running
GPGPU-Sim uArch: Shader 11 finished CTA #2 (2516,0), 3 CTAs running
GPGPU-Sim uArch: Shader 6 finished CTA #3 (2527,0), 0 CTAs running
GPGPU-Sim uArch: Shader 6 empty (release kernel 1 '_Z6KernelP4NodePiPbS2_S1_S2_i').
GPGPU-Sim uArch: Shader 9 finished CTA #1 (2527,0), 0 CTAs running
GPGPU-Sim uArch: Shader 9 empty (release kernel 1 '_Z6KernelP4NodePiPbS2_S1_S2_i').
GPGPU-Sim uArch: Shader 0 finished CTA #5 (2530,0), 0 CTAs running
GPGPU-Sim uArch: Shader 0 empty (release kernel 1 '_Z6KernelP4NodePiPbS2_S1_S2_i').
GPGPU-Sim uArch: Shader 7 finished CTA #3 (2548,0), 2 CTAs running
GPGPU-Sim uArch: Shader 7 finished CTA #5 (2555,0), 1 CTAs running
GPGPU-Sim uArch: Shader 10 finished CTA #2 (2558,0), 3 CTAs running
GPGPU-Sim uArch: Shader 7 finished CTA #4 (2559,0), 0 CTAs running
GPGPU-Sim uArch: Shader 7 empty (release kernel 1 '_Z6KernelP4NodePiPbS2_S1_S2_i').
GPGPU-Sim uArch: Shader 11 finished CTA #3 (2564,0), 2 CTAs running
GPGPU-Sim uArch: Shader 10 finished CTA #0 (2574,0), 2 CTAs running
GPGPU-Sim uArch: Shader 10 finished CTA #3 (2574,0), 1 CTAs running
GPGPU-Sim uArch: Shader 11 finished CTA #1 (2579,0), 1 CTAs running
GPGPU-Sim uArch: Shader 11 finished CTA #0 (2586,0), 0 CTAs running
GPGPU-Sim uArch: Shader 11 empty (release kernel 1 '_Z6KernelP4NodePiPbS2_S1_S2_i').
GPGPU-Sim uArch: Shader 10 finished CTA #5 (2589,0), 0 CTAs running
GPGPU-Sim uArch: Shader 10 empty (release kernel 1 '_Z6KernelP4NodePiPbS2_S1_S2_i').
GPGPU-Sim uArch: Shader 1 finished CTA #0 (5989,0), 0 CTAs running
GPGPU-Sim uArch: Shader 1 empty (release kernel 1 '_Z6KernelP4NodePiPbS2_S1_S2_i').
GPGPU-Sim uArch: GPU detected kernel '_Z6KernelP4NodePiPbS2_S1_S2_i' finished on shader 1.
kernel_name = _Z6KernelP4NodePiPbS2_S1_S2_i 
kernel_launch_uid = 1 
gpu_sim_cycle = 5990
gpu_sim_insn = 917736
gpu_ipc =     153.2113
gpu_tot_sim_cycle = 5990
gpu_tot_sim_insn = 917736
gpu_tot_ipc =     153.2113
gpu_tot_issued_cta = 256
gpu_stall_dramfull = 289
gpu_stall_icnt2sh    = 148
gpu_total_sim_rate=305912

========= Core cache stats =========
L1I_cache:
	L1I_total_cache_accesses = 18559
	L1I_total_cache_misses = 962
	L1I_total_cache_miss_rate = 0.0518
	L1I_total_cache_pending_hits = 0
	L1I_total_cache_reservation_fails = 5607
L1D_cache:
	L1D_cache_core[0]: Access = 144, Miss = 36, Miss_rate = 0.250, Pending_hits = 108, Reservation_fails = 0
	L1D_cache_core[1]: Access = 196, Miss = 68, Miss_rate = 0.347, Pending_hits = 96, Reservation_fails = 0
	L1D_cache_core[2]: Access = 144, Miss = 36, Miss_rate = 0.250, Pending_hits = 108, Reservation_fails = 0
	L1D_cache_core[3]: Access = 144, Miss = 36, Miss_rate = 0.250, Pending_hits = 108, Reservation_fails = 0
	L1D_cache_core[4]: Access = 144, Miss = 36, Miss_rate = 0.250, Pending_hits = 108, Reservation_fails = 0
	L1D_cache_core[5]: Access = 128, Miss = 32, Miss_rate = 0.250, Pending_hits = 96, Reservation_fails = 0
	L1D_cache_core[6]: Access = 144, Miss = 36, Miss_rate = 0.250, Pending_hits = 108, Reservation_fails = 0
	L1D_cache_core[7]: Access = 144, Miss = 36, Miss_rate = 0.250, Pending_hits = 108, Reservation_fails = 0
	L1D_cache_core[8]: Access = 136, Miss = 34, Miss_rate = 0.250, Pending_hits = 102, Reservation_fails = 0
	L1D_cache_core[9]: Access = 136, Miss = 34, Miss_rate = 0.250, Pending_hits = 102, Reservation_fails = 0
	L1D_cache_core[10]: Access = 144, Miss = 36, Miss_rate = 0.250, Pending_hits = 108, Reservation_fails = 0
	L1D_cache_core[11]: Access = 144, Miss = 36, Miss_rate = 0.250, Pending_hits = 108, Reservation_fails = 0
	L1D_cache_core[12]: Access = 128, Miss = 32, Miss_rate = 0.250, Pending_hits = 96, Reservation_fails = 0
	L1D_cache_core[13]: Access = 120, Miss = 30, Miss_rate = 0.250, Pending_hits = 90, Reservation_fails = 0
	L1D_cache_core[14]: Access = 120, Miss = 30, Miss_rate = 0.250, Pending_hits = 90, Reservation_fails = 0
	L1D_total_cache_accesses = 2116
	L1D_total_cache_misses = 548
	L1D_total_cache_miss_rate = 0.2590
	L1D_total_cache_pending_hits = 1536
	L1D_total_cache_reservation_fails = 0
	L1D_cache_data_port_util = 0.001
	L1D_cache_fill_port_util = 0.013
L1C_cache:
	L1C_total_cache_accesses = 4115
	L1C_total_cache_misses = 480
	L1C_total_cache_miss_rate = 0.1166
	L1C_total_cache_pending_hits = 0
	L1C_total_cache_reservation_fails = 3172
L1T_cache:
	L1T_total_cache_accesses = 0
	L1T_total_cache_misses = 0
	L1T_total_cache_pending_hits = 0
	L1T_total_cache_reservation_fails = 0

Total_core_cache_stats:
	Total_core_cache_stats_breakdown[GLOBAL_ACC_R][HIT] = 31
	Total_core_cache_stats_breakdown[GLOBAL_ACC_R][HIT_RESERVED] = 1536
	Total_core_cache_stats_breakdown[GLOBAL_ACC_R][MISS] = 523
	Total_core_cache_stats_breakdown[CONST_ACC_R][HIT] = 3635
	Total_core_cache_stats_breakdown[CONST_ACC_R][MISS] = 480
	Total_core_cache_stats_breakdown[CONST_ACC_R][RESERVATION_FAIL] = 3172
	Total_core_cache_stats_breakdown[GLOBAL_ACC_W][HIT] = 1
	Total_core_cache_stats_breakdown[GLOBAL_ACC_W][MISS] = 25
	Total_core_cache_stats_breakdown[INST_ACC_R][HIT] = 17597
	Total_core_cache_stats_breakdown[INST_ACC_R][MISS] = 962
	Total_core_cache_stats_breakdown[INST_ACC_R][RESERVATION_FAIL] = 5607
Shader 0 warp_id issue ditsribution:
warp_id:
0, 1, 2, 3, 4, 5, 6, 7, 8, 9, 10, 11, 12, 13, 14, 15, 16, 17, 18, 19, 20, 21, 22, 23, 24, 25, 26, 27, 28, 29, 30, 31, 32, 33, 34, 35, 36, 37, 38, 39, 40, 41, 42, 43, 44, 45, 46, 47, 
distro:
45, 45, 45, 45, 45, 45, 45, 45, 45, 45, 45, 45, 45, 45, 45, 45, 45, 45, 45, 45, 45, 45, 45, 45, 45, 45, 45, 45, 45, 45, 45, 45, 45, 45, 45, 45, 45, 45, 45, 45, 45, 45, 45, 45, 45, 45, 45, 45, 
gpgpu_n_tot_thrd_icount = 990816
gpgpu_n_tot_w_icount = 30963
gpgpu_n_stall_shd_mem = 3172
gpgpu_n_mem_read_local = 0
gpgpu_n_mem_write_local = 0
gpgpu_n_mem_read_global = 523
gpgpu_n_mem_write_global = 26
gpgpu_n_mem_texture = 0
gpgpu_n_mem_const = 15
gpgpu_n_load_insn  = 65578
gpgpu_n_store_insn = 26
gpgpu_n_shmem_insn = 0
gpgpu_n_tex_insn = 0
gpgpu_n_const_mem_insn = 0
gpgpu_n_param_mem_insn = 131091
gpgpu_n_shmem_bkconflict = 0
gpgpu_n_cache_bkconflict = 0
gpgpu_n_intrawarp_mshr_merge = 0
gpgpu_n_cmem_portconflict = 3172
gpgpu_stall_shd_mem[c_mem][bk_conf] = 3172
gpgpu_stall_shd_mem[c_mem][mshr_rc] = 0
gpgpu_stall_shd_mem[c_mem][icnt_rc] = 0
gpgpu_stall_shd_mem[c_mem][data_port_stall] = 0
gpgpu_stall_shd_mem[t_mem][mshr_rc] = 0
gpgpu_stall_shd_mem[t_mem][icnt_rc] = 0
gpgpu_stall_shd_mem[t_mem][data_port_stall] = 0
gpgpu_stall_shd_mem[s_mem][bk_conf] = 0
gpgpu_stall_shd_mem[gl_mem][bk_conf] = 0
gpgpu_stall_shd_mem[gl_mem][coal_stall] = 0
gpgpu_stall_shd_mem[gl_mem][data_port_stall] = 0
gpgpu_stall_shd_mem[g_mem_ld][mshr_rc] = 0
gpgpu_stall_shd_mem[g_mem_ld][icnt_rc] = 0
gpgpu_stall_shd_mem[g_mem_ld][wb_icnt_rc] = 0
gpgpu_stall_shd_mem[g_mem_ld][wb_rsrv_fail] = 0
gpgpu_stall_shd_mem[g_mem_st][mshr_rc] = 0
gpgpu_stall_shd_mem[g_mem_st][icnt_rc] = 0
gpgpu_stall_shd_mem[g_mem_st][wb_icnt_rc] = 0
gpgpu_stall_shd_mem[g_mem_st][wb_rsrv_fail] = 0
gpgpu_stall_shd_mem[l_mem_ld][mshr_rc] = 0
gpgpu_stall_shd_mem[l_mem_ld][icnt_rc] = 0
gpgpu_stall_shd_mem[l_mem_ld][wb_icnt_rc] = 0
gpgpu_stall_shd_mem[l_mem_ld][wb_rsrv_fail] = 0
gpgpu_stall_shd_mem[l_mem_st][mshr_rc] = 0
gpgpu_stall_shd_mem[l_mem_st][icnt_rc] = 0
gpgpu_stall_shd_mem[l_mem_ld][wb_icnt_rc] = 0
gpgpu_stall_shd_mem[l_mem_ld][wb_rsrv_fail] = 0
gpu_reg_bank_conflict_stalls = 0
Warp Occupancy Distribution:
Stall:7105	W0_Idle:15943	W0_Scoreboard:28143	W1:243	W2:0	W3:0	W4:0	W5:0	W6:0	W7:0	W8:0	W9:0	W10:0	W11:0	W12:0	W13:0	W14:0	W15:0	W16:0	W17:0	W18:0	W19:0	W20:0	W21:0	W22:0	W23:0	W24:0	W25:0	W26:0	W27:0	W28:0	W29:0	W30:0	W31:0	W32:30720
traffic_breakdown_coretomem[CONST_ACC_R] = 120 {8:15,}
traffic_breakdown_coretomem[GLOBAL_ACC_R] = 4184 {8:523,}
traffic_breakdown_coretomem[GLOBAL_ACC_W] = 1040 {40:26,}
traffic_breakdown_coretomem[INST_ACC_R] = 256 {8:32,}
traffic_breakdown_memtocore[CONST_ACC_R] = 1080 {72:15,}
traffic_breakdown_memtocore[GLOBAL_ACC_R] = 71128 {136:523,}
traffic_breakdown_memtocore[GLOBAL_ACC_W] = 208 {8:26,}
traffic_breakdown_memtocore[INST_ACC_R] = 4352 {136:32,}
maxmrqlatency = 179 
maxdqlatency = 0 
maxmflatency = 454 
averagemflatency = 298 
max_icnt2mem_latency = 36 
max_icnt2sh_latency = 5989 
mrq_lat_table:167 	20 	69 	61 	63 	45 	105 	18 	0 	0 	0 	0 	0 	0 	0 	0 	0 	0 	0 	0 	0 	0 	0 	0 	0 	0 	0 	0 	0 	0 	0 	0 	
dq_lat_table:0 	0 	0 	0 	0 	0 	0 	0 	0 	0 	0 	0 	0 	0 	0 	0 	0 	0 	0 	0 	0 	0 	0 	0 	0 	0 	0 	0 	0 	0 	0 	0 	
mf_lat_table:0 	0 	0 	0 	0 	0 	0 	29 	535 	0 	0 	0 	0 	0 	0 	0 	0 	0 	0 	0 	0 	0 	0 	0 	0 	0 	0 	0 	0 	0 	0 	0 	
icnt2mem_lat_table:0 	0 	0 	585 	8 	3 	0 	0 	0 	0 	0 	0 	0 	0 	0 	0 	0 	0 	0 	0 	0 	0 	0 	0 	
icnt2sh_lat_table:0 	0 	0 	471 	67 	0 	0 	0 	0 	0 	2 	9 	15 	0 	0 	0 	0 	0 	0 	0 	0 	0 	0 	0 	
mf_lat_pw_table:0 	0 	0 	0 	0 	0 	0 	5 	5 	0 	0 	0 	0 	0 	0 	0 	0 	0 	0 	0 	0 	0 	0 	0 	0 	0 	0 	0 	0 	0 	0 	0 	
maximum concurrent accesses to same row:
dram[0]:         1         0         0         0         0         0         0         0         0         0         0         0         0         0         0         0 
dram[1]:         0         0         0         0         0         0         0         0         0         0         0         0         0         0         0         0 
dram[2]:         0         0         0         0         0         0         0         0         0         0         0         0         0         0         0         0 
dram[3]:         0         0         0         0         0         0         0         0         0         0         0         0         0         0         0         0 
dram[4]:         0         0         0         0         0         0         0         0         0         0        22        22         0         0         0         0 
dram[5]:         0         0         0         0         0         0         0         0         0         0         0         0         0         0         0         0 
maximum service time to same row:
dram[0]:      1595         0      5971         0         0         0         0         0         0         0       934       899      1763      1775         0         0 
dram[1]:      1182         0         0         0         0         0         0         0         0         0       938       906      1747      1797         0      4010 
dram[2]:         0         0         0      3125         0      1622         0         0         0      4349       941       910      1751      1543         0         0 
dram[3]:         0         0         0      5154         0      4752         0         0         0         0       947       919      1774      1766         0         0 
dram[4]:         0      3937         0         0         0      5557         0         0         0         0      1290      2621      1785      1785      3194         0 
dram[5]:         0         0         0         0         0         0         0         0         0         0       918       922      1754      1738      5631         0 
average row accesses per activate:
dram[0]:  1.000000      -nan  2.000000      -nan      -nan      -nan      -nan      -nan      -nan      -nan 20.000000 22.000000 22.000000 22.000000      -nan      -nan 
dram[1]:  2.000000      -nan      -nan      -nan      -nan      -nan      -nan      -nan      -nan      -nan 20.000000 22.000000 24.000000 22.000000      -nan  3.000000 
dram[2]:      -nan      -nan      -nan  2.000000      -nan  1.000000      -nan      -nan      -nan  2.000000 20.000000 22.000000 22.000000 22.000000      -nan      -nan 
dram[3]:      -nan      -nan      -nan  2.000000      -nan  2.000000      -nan      -nan      -nan      -nan 20.000000 22.000000 22.000000 20.000000      -nan      -nan 
dram[4]:      -nan  2.000000      -nan      -nan      -nan  2.000000      -nan      -nan      -nan      -nan  8.333333 12.000000 22.000000 20.000000  2.000000      -nan 
dram[5]:      -nan      -nan      -nan      -nan      -nan      -nan      -nan      -nan      -nan      -nan 22.000000 22.000000 22.000000 20.000000  1.000000      -nan 
average row locality = 548/43 = 12.744186
number of total memory accesses made:
dram[0]:         0         0         0         0         0         0         0         0         0         0         0         0         0         0         0         0 
dram[1]:         0         0         0         0         0         0         0         0         0         0         0         0         0         0         0         0 
dram[2]:         0         0         0         0         0         0         0         0         0         0         0         0         0         0         0         0 
dram[3]:         0         0         0         0         0         0         0         0         0         0         0         0         0         0         0         0 
dram[4]:         0         0         0         0         0         0         0         0         0         0         0         0         0         0         0         0 
dram[5]:         0         0         0         0         0         0         0         0         0         0         0         0         0         0         0         0 
total accesses: 0
min_bank_accesses = 0!
min_chip_accesses = 0!
number of total read accesses:
dram[0]:         4         0         1         0         0         0         0         0         0         0        20        22        22        22         0         0 
dram[1]:         2         0         0         0         0         0         0         0         0         0        20        22        24        22         0         3 
dram[2]:         0         0         0         1         0         1         0         0         0         1        20        22        22        21         0         0 
dram[3]:         0         0         0         1         0         1         0         0         0         0        20        22        22        20         0         0 
dram[4]:         0         1         0         0         0         1         0         0         0         0        24        23        22        20         2         0 
dram[5]:         0         0         0         0         0         0         0         0         0         0        22        22        22        20         1         0 
total reads: 538
min_bank_accesses = 0!
chip skew: 93/86 = 1.08
number of total write accesses:
dram[0]:         0         0         1         0         0         0         0         0         0         0         0         0         0         0         0         0 
dram[1]:         0         0         0         0         0         0         0         0         0         0         0         0         0         0         0         0 
dram[2]:         0         0         0         1         0         0         0         0         0         1         0         0         0         1         0         0 
dram[3]:         0         0         0         1         0         1         0         0         0         0         0         0         0         0         0         0 
dram[4]:         0         1         0         0         0         1         0         0         0         0         1         1         0         0         0         0 
dram[5]:         0         0         0         0         0         0         0         0         0         0         0         0         0         0         0         0 
total reads: 10
min_bank_accesses = 0!
min_chip_accesses = 0!
average mf latency per bank:
dram[0]:       1055    none         126    none      none      none      none      none      none      none         276       334       297       302    none      none  
dram[1]:          0    none      none      none      none      none      none      none      none      none         281       333       274       317    none         266
dram[2]:     none      none      none         126    none         272    none      none      none         126       275       344       294       314    none      none  
dram[3]:     none      none      none         125    none         126    none      none      none      none         290       364       300       314    none      none  
dram[4]:     none         126    none      none      none         125    none      none      none      none         307       329       274       314       267    none  
dram[5]:     none      none      none      none      none      none      none      none      none      none         273       356       293       313       273    none  
maximum mf latency per bank:
dram[0]:        283         0       252         0         0         0         0         0         0         0       302       397       334       372         0         0
dram[1]:          0         0         0         0         0         0         0         0         0         0       290       388       318       405         0       272
dram[2]:          0         0         0       252         0       272         0         0         0       252       293       387       355       454         0         0
dram[3]:          0         0         0       251         0       252         0         0         0         0       307       426       334       399         0         0
dram[4]:          0       252         0         0         0       251         0         0         0         0       288       422       319       386       272         0
dram[5]:          0         0         0         0         0         0         0         0         0         0       281       396       354       422       273         0

Number of Memory Banks Accessed per Memory Operation per Warp (from 0):
0	0	0	0	0	0	0	0	0	0	0	0	0	0	0	0	0	0	0	0	0	0	0	0	0	0	0	0	0	0	0	0	0	0	0	0	0	0	0	0	0	0	0	0	0	0	0	0	0	0	0	0	0	0	0	0	0	0	0	0	0	0	0	0	0	0	0	0	0	0	0	0	0	0	0	0	0	0	0	0	0	0	0	0	0	0	0	0	0	0	0	0	0	0	0	0	
Average # of Memory Banks Accessed per Memory Operation per Warp=-nan

position of mrq chosen
0	0	0	0	0	0	0	0	0	0	0	0	0	0	0	0	

average position of mrq chosen = -nan
Memory Partition 0: 
Cache L2_bank_000:
MSHR contents
MSHR: tag=0x80234400, atomic=0 1 entries : 0x7ef907cbab10 :  mf: uid= 33579, sid01:w00, part=0, addr=0x80234440, load , size=32, unknown  status = IN_PARTITION_DRAM (5989), 

Cache L2_bank_001:
MSHR contents

In Dram Latency Queue (total = 0): 
DRAM[0]: 16 bks, busW=4 BL=4 CL=12, tRRD=2 tCCD=6, tRCD=12 tRAS=28 tRP=12 tRC=40
n_cmd=7906 n_nop=7530 n_act=9 n_pre=3 n_req=92 n_rd=363 n_write=1 bw_util=0.04604
n_activity=1329 dram_eff=0.2739
bk0: 16a 7781i bk1: 0a 7902i bk2: 3a 7879i bk3: 0a 7903i bk4: 0a 7904i bk5: 0a 7904i bk6: 0a 7906i bk7: 0a 7908i bk8: 0a 7908i bk9: 0a 7908i bk10: 80a 7656i bk11: 88a 7443i bk12: 88a 7572i bk13: 88a 7357i bk14: 0a 7904i bk15: 0a 7905i 
dram_util_bins: 0 0 0 0 0 0 0 0 0 0
dram_eff_bins: 0 0 0 0 0 0 0 0 0 0
mrqq: max=9 avg=0.421326
Memory Partition 1: 
Cache L2_bank_002:
MSHR contents

Cache L2_bank_003:
MSHR contents

In Dram Latency Queue (total = 0): 
DRAM[1]: 16 bks, busW=4 BL=4 CL=12, tRRD=2 tCCD=6, tRCD=12 tRAS=28 tRP=12 tRC=40
n_cmd=7906 n_nop=7528 n_act=6 n_pre=0 n_req=93 n_rd=372 n_write=0 bw_util=0.04705
n_activity=1260 dram_eff=0.2952
bk0: 8a 7866i bk1: 0a 7902i bk2: 0a 7903i bk3: 0a 7905i bk4: 0a 7905i bk5: 0a 7905i bk6: 0a 7906i bk7: 0a 7909i bk8: 0a 7909i bk9: 0a 7910i bk10: 80a 7654i bk11: 88a 7435i bk12: 96a 7546i bk13: 88a 7431i bk14: 0a 7904i bk15: 12a 7862i 
dram_util_bins: 0 0 0 0 0 0 0 0 0 0
dram_eff_bins: 0 0 0 0 0 0 0 0 0 0
mrqq: max=9 avg=0.441943
Memory Partition 2: 
Cache L2_bank_004:
MSHR contents

Cache L2_bank_005:
MSHR contents

In Dram Latency Queue (total = 0): 
DRAM[2]: 16 bks, busW=4 BL=4 CL=12, tRRD=2 tCCD=6, tRCD=12 tRAS=28 tRP=12 tRC=40
n_cmd=7906 n_nop=7544 n_act=7 n_pre=0 n_req=91 n_rd=352 n_write=3 bw_util=0.0449
n_activity=1264 dram_eff=0.2809
bk0: 0a 7906i bk1: 0a 7907i bk2: 0a 7907i bk3: 4a 7879i bk4: 0a 7905i bk5: 4a 7882i bk6: 0a 7906i bk7: 0a 7908i bk8: 0a 7908i bk9: 4a 7880i bk10: 80a 7662i bk11: 88a 7403i bk12: 88a 7517i bk13: 84a 7348i bk14: 0a 7904i bk15: 0a 7905i 
dram_util_bins: 0 0 0 0 0 0 0 0 0 0
dram_eff_bins: 0 0 0 0 0 0 0 0 0 0
mrqq: max=14 avg=0.567291
Memory Partition 3: 
Cache L2_bank_006:
MSHR contents

Cache L2_bank_007:
MSHR contents

In Dram Latency Queue (total = 0): 
DRAM[3]: 16 bks, busW=4 BL=4 CL=12, tRRD=2 tCCD=6, tRCD=12 tRAS=28 tRP=12 tRC=40
n_cmd=7906 n_nop=7554 n_act=6 n_pre=0 n_req=88 n_rd=344 n_write=2 bw_util=0.04376
n_activity=1172 dram_eff=0.2952
bk0: 0a 7906i bk1: 0a 7907i bk2: 0a 7908i bk3: 4a 7880i bk4: 0a 7906i bk5: 4a 7878i bk6: 0a 7904i bk7: 0a 7906i bk8: 0a 7907i bk9: 0a 7907i bk10: 80a 7643i bk11: 88a 7396i bk12: 88a 7571i bk13: 80a 7421i bk14: 0a 7902i bk15: 0a 7904i 
dram_util_bins: 0 0 0 0 0 0 0 0 0 0
dram_eff_bins: 0 0 0 0 0 0 0 0 0 0
mrqq: max=12 avg=0.539843
Memory Partition 4: 
Cache L2_bank_008:
MSHR contents

Cache L2_bank_009:
MSHR contents

In Dram Latency Queue (total = 0): 
DRAM[4]: 16 bks, busW=4 BL=4 CL=12, tRRD=2 tCCD=6, tRCD=12 tRAS=28 tRP=12 tRC=40
n_cmd=7906 n_nop=7517 n_act=10 n_pre=3 n_req=97 n_rd=372 n_write=4 bw_util=0.04756
n_activity=1396 dram_eff=0.2693
bk0: 0a 7902i bk1: 4a 7876i bk2: 0a 7902i bk3: 0a 7907i bk4: 0a 7907i bk5: 4a 7880i bk6: 0a 7907i bk7: 0a 7910i bk8: 0a 7911i bk9: 0a 7912i bk10: 96a 7553i bk11: 92a 7329i bk12: 88a 7582i bk13: 80a 7427i bk14: 8a 7869i bk15: 0a 7901i 
dram_util_bins: 0 0 0 0 0 0 0 0 0 0
dram_eff_bins: 0 0 0 0 0 0 0 0 0 0
mrqq: max=12 avg=0.44384
Memory Partition 5: 
Cache L2_bank_010:
MSHR contents

Cache L2_bank_011:
MSHR contents

In Dram Latency Queue (total = 0): 
DRAM[5]: 16 bks, busW=4 BL=4 CL=12, tRRD=2 tCCD=6, tRCD=12 tRAS=28 tRP=12 tRC=40
n_cmd=7906 n_nop=7553 n_act=5 n_pre=0 n_req=87 n_rd=348 n_write=0 bw_util=0.04402
n_activity=1140 dram_eff=0.3053
bk0: 0a 7905i bk1: 0a 7906i bk2: 0a 7906i bk3: 0a 7906i bk4: 0a 7906i bk5: 0a 7907i bk6: 0a 7907i bk7: 0a 7907i bk8: 0a 7907i bk9: 0a 7907i bk10: 88a 7620i bk11: 88a 7374i bk12: 88a 7513i bk13: 80a 7359i bk14: 4a 7882i bk15: 0a 7903i 
dram_util_bins: 0 0 0 0 0 0 0 0 0 0
dram_eff_bins: 0 0 0 0 0 0 0 0 0 0
mrqq: max=11 avg=0.534025

========= L2 cache stats =========
L2_cache_bank[0]: Access = 77, Miss = 47, Miss_rate = 0.610, Pending_hits = 6, Reservation_fails = 231
L2_cache_bank[1]: Access = 44, Miss = 44, Miss_rate = 1.000, Pending_hits = 0, Reservation_fails = 0
L2_cache_bank[2]: Access = 61, Miss = 46, Miss_rate = 0.754, Pending_hits = 3, Reservation_fails = 107
L2_cache_bank[3]: Access = 47, Miss = 47, Miss_rate = 1.000, Pending_hits = 0, Reservation_fails = 0
L2_cache_bank[4]: Access = 42, Miss = 42, Miss_rate = 1.000, Pending_hits = 0, Reservation_fails = 0
L2_cache_bank[5]: Access = 46, Miss = 46, Miss_rate = 1.000, Pending_hits = 0, Reservation_fails = 0
L2_cache_bank[6]: Access = 45, Miss = 42, Miss_rate = 0.933, Pending_hits = 0, Reservation_fails = 0
L2_cache_bank[7]: Access = 46, Miss = 44, Miss_rate = 0.957, Pending_hits = 0, Reservation_fails = 0
L2_cache_bank[8]: Access = 56, Miss = 48, Miss_rate = 0.857, Pending_hits = 0, Reservation_fails = 0
L2_cache_bank[9]: Access = 45, Miss = 45, Miss_rate = 1.000, Pending_hits = 0, Reservation_fails = 0
L2_cache_bank[10]: Access = 45, Miss = 45, Miss_rate = 1.000, Pending_hits = 0, Reservation_fails = 0
L2_cache_bank[11]: Access = 42, Miss = 42, Miss_rate = 1.000, Pending_hits = 0, Reservation_fails = 0
L2_total_cache_accesses = 596
L2_total_cache_misses = 538
L2_total_cache_miss_rate = 0.9027
L2_total_cache_pending_hits = 9
L2_total_cache_reservation_fails = 338
L2_total_cache_breakdown:
	L2_cache_stats_breakdown[GLOBAL_ACC_R][MISS] = 523
	L2_cache_stats_breakdown[CONST_ACC_R][HIT] = 11
	L2_cache_stats_breakdown[CONST_ACC_R][HIT_RESERVED] = 3
	L2_cache_stats_breakdown[CONST_ACC_R][MISS] = 1
	L2_cache_stats_breakdown[CONST_ACC_R][RESERVATION_FAIL] = 111
	L2_cache_stats_breakdown[GLOBAL_ACC_W][HIT] = 16
	L2_cache_stats_breakdown[GLOBAL_ACC_W][MISS] = 10
	L2_cache_stats_breakdown[INST_ACC_R][HIT] = 22
	L2_cache_stats_breakdown[INST_ACC_R][HIT_RESERVED] = 6
	L2_cache_stats_breakdown[INST_ACC_R][MISS] = 4
	L2_cache_stats_breakdown[INST_ACC_R][RESERVATION_FAIL] = 227
L2_cache_data_port_util = 0.002
L2_cache_fill_port_util = 0.030

icnt_total_pkts_mem_to_simt=2846
icnt_total_pkts_simt_to_mem=622
LD_mem_lat_dist  0 0 0 0 0 0 0 0 0 0 0 0 0 0 0 0 0 0 0 0 0 0 0 0 0 0 0
ST_mem_lat_dist  0 0 0 0 0 0 0 0 0 0 0 0 0 0 0 0 0 0 0 0 0 0 0 0 0 0 0
----------------------------Interconnect-DETAILS--------------------------------
Class 0:
Packet latency average = 8.92114
	minimum = 6
	maximum = 34
Network latency average = 8.73238
	minimum = 6
	maximum = 34
Slowest packet = 14
Flit latency average = 7.0271
	minimum = 6
	maximum = 34
Slowest flit = 14
Fragmentation average = 0
	minimum = 0
	maximum = 0
Injected packet rate average = 0.00737031
	minimum = 0.00550918 (at node 13)
	maximum = 0.0128548 (at node 15)
Accepted packet rate average = 0.00737031
	minimum = 0.00550918 (at node 13)
	maximum = 0.0128548 (at node 15)
Injected flit rate average = 0.0214431
	minimum = 0.00550918 (at node 13)
	maximum = 0.0572621 (at node 15)
Accepted flit rate average= 0.0214431
	minimum = 0.00701169 (at node 19)
	maximum = 0.0440735 (at node 1)
Injected packet length average = 2.9094
Accepted packet length average = 2.9094
Total in-flight flits = 0 (0 measured)
====== Overall Traffic Statistics ======
====== Traffic class 0 ======
Packet latency average = 8.92114 (1 samples)
	minimum = 6 (1 samples)
	maximum = 34 (1 samples)
Network latency average = 8.73238 (1 samples)
	minimum = 6 (1 samples)
	maximum = 34 (1 samples)
Flit latency average = 7.0271 (1 samples)
	minimum = 6 (1 samples)
	maximum = 34 (1 samples)
Fragmentation average = 0 (1 samples)
	minimum = 0 (1 samples)
	maximum = 0 (1 samples)
Injected packet rate average = 0.00737031 (1 samples)
	minimum = 0.00550918 (1 samples)
	maximum = 0.0128548 (1 samples)
Accepted packet rate average = 0.00737031 (1 samples)
	minimum = 0.00550918 (1 samples)
	maximum = 0.0128548 (1 samples)
Injected flit rate average = 0.0214431 (1 samples)
	minimum = 0.00550918 (1 samples)
	maximum = 0.0572621 (1 samples)
Accepted flit rate average = 0.0214431 (1 samples)
	minimum = 0.00701169 (1 samples)
	maximum = 0.0440735 (1 samples)
Injected packet size average = 2.9094 (1 samples)
Accepted packet size average = 2.9094 (1 samples)
Hops average = 1 (1 samples)
----------------------------END-of-Interconnect-DETAILS-------------------------


gpgpu_simulation_time = 0 days, 0 hrs, 0 min, 3 sec (3 sec)
gpgpu_simulation_rate = 305912 (inst/sec)
gpgpu_simulation_rate = 1996 (cycle/sec)
GPGPU-Sim: synchronize waiting for inactive GPU simulation
GPGPU-Sim API: Stream Manager State
GPGPU-Sim: detected inactive GPU simulation thread

GPGPU-Sim PTX: cudaLaunch for 0x0x405636 (mode=performance simulation) on stream 0
GPGPU-Sim PTX: pushing kernel '_Z6KernelP4NodePiPbS2_S1_S2_i' to stream 0, gridDim= (256,1,1) blockDim = (256,1,1) 
[...]
traffic_breakdown_coretomem[INST_ACC_R] = 480 {8:60,}
traffic_breakdown_memtocore[CONST_ACC_R] = 1080 {72:15,}
traffic_breakdown_memtocore[GLOBAL_ACC_R] = 84118312 {136:618517,}
traffic_breakdown_memtocore[GLOBAL_ACC_W] = 3303832 {8:412979,}
traffic_breakdown_memtocore[INST_ACC_R] = 8160 {136:60,}
maxmrqlatency = 1216 
maxdqlatency = 0 
maxmflatency = 1985 
averagemflatency = 396 
max_icnt2mem_latency = 949 
max_icnt2sh_latency = 763029 
mrq_lat_table:42361 	1335 	4099 	4363 	6068 	2159 	1058 	1041 	583 	45 	4 	0 	0 	0 	0 	0 	0 	0 	0 	0 	0 	0 	0 	0 	0 	0 	0 	0 	0 	0 	0 	0 	
dq_lat_table:0 	0 	0 	0 	0 	0 	0 	0 	0 	0 	0 	0 	0 	0 	0 	0 	0 	0 	0 	0 	0 	0 	0 	0 	0 	0 	0 	0 	0 	0 	0 	0 	
mf_lat_table:0 	0 	0 	0 	0 	0 	0 	135716 	706487 	188419 	889 	0 	0 	0 	0 	0 	0 	0 	0 	0 	0 	0 	0 	0 	0 	0 	0 	0 	0 	0 	0 	0 	
icnt2mem_lat_table:0 	0 	0 	86005 	30372 	81190 	320711 	243912 	265094 	4287 	0 	0 	0 	0 	0 	0 	0 	0 	0 	0 	0 	0 	0 	0 	
icnt2sh_lat_table:0 	0 	0 	39925 	291768 	269042 	17640 	157 	0 	0 	2 	9 	35 	889 	9422 	17497 	44398 	99176 	167881 	73670 	0 	0 	0 	0 	
mf_lat_pw_table:0 	0 	0 	0 	0 	0 	0 	106 	1414 	12 	0 	0 	0 	0 	0 	0 	0 	0 	0 	0 	0 	0 	0 	0 	0 	0 	0 	0 	0 	0 	0 	0 	
maximum concurrent accesses to same row:
dram[0]:        29        30        21        24        28        29        32        32        32        45        27        31        32        37        34        34 
dram[1]:        26        28        32        34        38        20        30        24        46        22        20        29        34        35        42        38 
dram[2]:        28        25        41        34        25        25        32        32        28        32        25        23        34        43        43        49 
dram[3]:        24        23        56        57        34        24        27        29        29        29        28        23        27        34        34        31 
dram[4]:        32        33        38        32        26        30        33        32        33        32        30        22        33        32        36        32 
dram[5]:        30        30        39        26        24        25        28        30        19        24        30        24        32        38        32        35 
maximum service time to same row:
dram[0]:     73468     52975     58981     52848     57253     58372     46439     46531     59060     44753     57938     49076     87918     68282     95849     95227 
dram[1]:     67227     58813     62896     77319    115510     55068     46495     47156     86881     82691     43450     58003     54092     92128     69465     89428 
dram[2]:     41928     48125     54207     50327     57028     56370     51620     55763     39553     62469     48588     47238     65454     84297    136129    144619 
dram[3]:     54619     51027    100328     62881     42266     44875     59699     45543     35772     31429     53222     85207     92946    135465     65375     68945 
dram[4]:     60794     42508     48562     70860     61123     73549     68911    137445     56673     46681     44057     45731    110620     72027     74531     93776 
dram[5]:     56500     64309    116423    112048     76234     63006     66158     66450     65465     33438     59388     48756     96400    119338    141574    131247 
average row accesses per activate:
dram[0]:  3.677966  3.528302  3.088235  3.321739  4.012658  3.628415  3.488372  3.532710  4.490683  4.344633  3.204762  3.174129  4.271028  5.583333  7.016949  6.173913 
dram[1]:  3.556075  4.096447  3.313008  3.836735  3.265766  3.535353  3.092664  2.982639  3.219512  3.370213  3.383178  3.000000  3.671875  4.170940  5.435294  6.012821 
dram[2]:  3.661616  3.388350  3.670051  3.835897  3.654762  3.869823  4.351515  4.212290  3.627451  3.443439  3.022321  3.018692  4.376147  4.724490  6.796875  6.115942 
dram[3]:  3.301653  3.223629  3.888325  3.490741  3.709302  3.903615  4.069892  3.895288  3.252066  3.542222  3.205742  3.132076  4.468469  4.563636  5.421687  4.945652 
dram[4]:  3.726804  4.179012  3.817708  3.430622  3.794286  3.702247  3.610837  4.018750  4.601191  3.923077  3.228972  3.192894  4.735294  4.345794  7.196721  8.644444 
dram[5]:  3.633333  3.230435  3.216102  2.888087  3.685083  3.484375  4.090395  3.931373  3.259414  3.371681  3.366492  2.938776  5.061856  4.485981  6.533333  6.661539 
average row locality = 63116/16912 = 3.732025
number of total memory accesses made:
dram[0]:         0         0         0         0         0         0         0         0         0         0         0         0         0         0         0         0 
dram[1]:         0         0         0         0         0         0         0         0         0         0         0         0         0         0         0         0 
dram[2]:         0         0         0         0         0         0         0         0         0         0         0         0         0         0         0         0 
dram[3]:         0         0         0         0         0         0         0         0         0         0         0         0         0         0         0         0 
dram[4]:         0         0         0         0         0         0         0         0         0         0         0         0         0         0         0         0 
dram[5]:         0         0         0         0         0         0         0         0         0         0         0         0         0         0         0         0 
total accesses: 0
min_bank_accesses = 0!
min_chip_accesses = 0!
number of total read accesses:
dram[0]:       478       516       531       545       494       514       581       584       552       570       534       520       427       437       414       423 
dram[1]:       526       547       549       522       539       548       620       654       594       584       557       527       442       455       459       467 
dram[2]:       513       501       515       518       471       500       552       574       561       572       546       532       454       440       434       419 
dram[3]:       548       529       535       527       481       494       575       583       579       593       541       526       457       462       448       455 
dram[4]:       514       489       520       511       502       503       583       516       580       572       548       510       451       434       438       389 
dram[5]:       535       535       550       570       511       509       562       608       587       574       531       562       447       442       392       432 
total reads: 49552
bank skew: 654/389 = 1.68
chip skew: 8590/8060 = 1.07
number of total write accesses:
dram[0]:       173       232       204       219       140       150       169       172       171       199       139       118        30        32         0         3 
dram[1]:       235       260       266       230       186       152       181       205       198       208       167       145        28        33         3         2 
dram[2]:       212       197       208       230       143       154       166       180       179       189       131       114        23        23         1         3 
dram[3]:       251       235       231       227       157       154       182       161       208       204       129       138        39        40         2         0 
dram[4]:       209       188       213       206       162       156       150       127       193       193       143       119        32        31         1         0 
dram[5]:       228       208       209       230       156       160       162       194       192       188       112       158        44        38         0         1 
total reads: 13564
min_bank_accesses = 0!
chip skew: 2499/2123 = 1.18
average mf latency per bank:
dram[0]:       3038      2718      3116      3020      3636      3419      3256      3141      3098      2892      6180      6695     14208     13965     21798     21336
dram[1]:       2665      2600      2813      3213      3289      3515      3163      3059      2928      2981      5757      6607     14005     13933     20081     20330
dram[2]:       2851      2921      3123      3070      3715      3681      3379      3250      3189      3091      6152      7002     13636     14910     20582     21835
dram[3]:       2636      2674      2962      3026      3586      3635      3209      3309      2882      2805      6296      6578     13073     13704     20245     20741
dram[4]:       3719      3075      4011      3142      4662      3698      4426      3754      3942      2966     37140      7059     17992     14868     27638     23750
dram[5]:       2620      2825      2913      2935      3388      3540      3197      3071      2811      3016      6601      6239     13040     14424     22501     21579
maximum mf latency per bank:
dram[0]:       1038      1810      1220      1561      1410      1440      1163      1301      1672      1177      1597      1610      1219      1547      1375      1471
dram[1]:        931       937      1075      1066       994      1187      1025      1145       910      1159       928      1154       884      1035       929       997
dram[2]:        910      1420      1132      1236      1199      1502      1293      1487      1255      1491       999      1226      1121      1496       953      1209
dram[3]:       1039      1036      1048      1012       911       872       892       927       931      1060      1053       955       902       956      1009       978
dram[4]:       1792      1565      1553      1352      1469      1555      1169      1418      1956      1985      1686      1491      1797      1677      1634      1671
dram[5]:        855       933       971      1014       884       910       889       978       877       944       893       990       881      1041       911      1022

Number of Memory Banks Accessed per Memory Operation per Warp (from 0):
0	0	0	0	0	0	0	0	0	0	0	0	0	0	0	0	0	0	0	0	0	0	0	0	0	0	0	0	0	0	0	0	0	0	0	0	0	0	0	0	0	0	0	0	0	0	0	0	0	0	0	0	0	0	0	0	0	0	0	0	0	0	0	0	0	0	0	0	0	0	0	0	0	0	0	0	0	0	0	0	0	0	0	0	0	0	0	0	0	0	0	0	0	0	0	0	
Average # of Memory Banks Accessed per Memory Operation per Warp=-nan

position of mrq chosen
0	0	0	0	0	0	0	0	0	0	0	0	0	0	0	0	

average position of mrq chosen = -nan
Memory Partition 0: 
Cache L2_bank_000:
MSHR contents

Cache L2_bank_001:
MSHR contents

In Dram Latency Queue (total = 0): 
DRAM[0]: 16 bks, busW=4 BL=4 CL=12, tRRD=2 tCCD=6, tRCD=12 tRAS=28 tRP=12 tRC=40
n_cmd=1010840 n_nop=967784 n_act=2695 n_pre=2679 n_req=10271 n_rd=32480 n_write=5202 bw_util=0.03728
n_activity=194232 dram_eff=0.194
bk0: 1912a 996500i bk1: 2064a 992905i bk2: 2124a 993297i bk3: 2180a 991406i bk4: 1976a 996506i bk5: 2056a 994199i bk6: 2324a 992949i bk7: 2336a 992254i bk8: 2208a 993427i bk9: 2280a 992296i bk10: 2136a 992628i bk11: 2080a 993190i bk12: 1708a 997934i bk13: 1748a 998230i bk14: 1656a 1001565i bk15: 1692a 1001000i 
dram_util_bins: 0 0 0 0 0 0 0 0 0 0
dram_eff_bins: 0 0 0 0 0 0 0 0 0 0
mrqq: max=16 avg=0.218667
Memory Partition 1: 
Cache L2_bank_002:
MSHR contents

Cache L2_bank_003:
MSHR contents

In Dram Latency Queue (total = 0): 
DRAM[1]: 16 bks, busW=4 BL=4 CL=12, tRRD=2 tCCD=6, tRCD=12 tRAS=28 tRP=12 tRC=40
n_cmd=1010840 n_nop=964175 n_act=3147 n_pre=3131 n_req=11089 n_rd=34360 n_write=6027 bw_util=0.03995
n_activity=211930 dram_eff=0.1906
bk0: 2104a 995129i bk1: 2188a 994481i bk2: 2196a 991965i bk3: 2088a 994781i bk4: 2156a 994830i bk5: 2192a 994793i bk6: 2480a 991507i bk7: 2616a 989164i bk8: 2376a 992827i bk9: 2336a 992940i bk10: 2228a 994762i bk11: 2108a 994152i bk12: 1768a 999246i bk13: 1820a 999225i bk14: 1836a 1001634i bk15: 1868a 1001882i 
dram_util_bins: 0 0 0 0 0 0 0 0 0 0
dram_eff_bins: 0 0 0 0 0 0 0 0 0 0
mrqq: max=16 avg=0.122763
Memory Partition 2: 
Cache L2_bank_004:
MSHR contents

Cache L2_bank_005:
MSHR contents

In Dram Latency Queue (total = 0): 
DRAM[2]: 16 bks, busW=4 BL=4 CL=12, tRRD=2 tCCD=6, tRCD=12 tRAS=28 tRP=12 tRC=40
n_cmd=1010840 n_nop=967908 n_act=2680 n_pre=2664 n_req=10255 n_rd=32408 n_write=5180 bw_util=0.03718
n_activity=192138 dram_eff=0.1956
bk0: 2052a 996211i bk1: 2004a 993375i bk2: 2060a 993819i bk3: 2072a 991868i bk4: 1884a 996874i bk5: 2000a 995013i bk6: 2208a 991652i bk7: 2296a 991807i bk8: 2244a 992381i bk9: 2288a 991098i bk10: 2184a 993306i bk11: 2128a 993177i bk12: 1816a 998161i bk13: 1760a 997693i bk14: 1736a 1002301i bk15: 1676a 1002784i 
dram_util_bins: 0 0 0 0 0 0 0 0 0 0
dram_eff_bins: 0 0 0 0 0 0 0 0 0 0
mrqq: max=16 avg=0.211366
Memory Partition 3: 
Cache L2_bank_006:
MSHR contents

Cache L2_bank_007:
MSHR contents

In Dram Latency Queue (total = 0): 
DRAM[3]: 16 bks, busW=4 BL=4 CL=12, tRRD=2 tCCD=6, tRCD=12 tRAS=28 tRP=12 tRC=40
n_cmd=1010840 n_nop=966083 n_act=2891 n_pre=2875 n_req=10691 n_rd=33332 n_write=5659 bw_util=0.03857
n_activity=200624 dram_eff=0.1943
bk0: 2192a 992961i bk1: 2116a 992643i bk2: 2140a 993239i bk3: 2108a 993441i bk4: 1924a 997519i bk5: 1976a 996651i bk6: 2300a 993313i bk7: 2332a 992591i bk8: 2316a 991174i bk9: 2372a 991793i bk10: 2164a 995553i bk11: 2104a 994458i bk12: 1828a 999889i bk13: 1848a 998896i bk14: 1792a 1001234i bk15: 1820a 1001339i 
dram_util_bins: 0 0 0 0 0 0 0 0 0 0
dram_eff_bins: 0 0 0 0 0 0 0 0 0 0
mrqq: max=16 avg=0.129559
Memory Partition 4: 
Cache L2_bank_008:
MSHR contents

Cache L2_bank_009:
MSHR contents

In Dram Latency Queue (total = 0): 
DRAM[4]: 16 bks, busW=4 BL=4 CL=12, tRRD=2 tCCD=6, tRCD=12 tRAS=28 tRP=12 tRC=40
n_cmd=1010840 n_nop=968330 n_act=2562 n_pre=2546 n_req=10183 n_rd=32240 n_write=5162 bw_util=0.037
n_activity=192193 dram_eff=0.1946
bk0: 2056a 993963i bk1: 1956a 995165i bk2: 2080a 992603i bk3: 2044a 993917i bk4: 2008a 995673i bk5: 2012a 993955i bk6: 2332a 990038i bk7: 2064a 993277i bk8: 2320a 991214i bk9: 2288a 990311i bk10: 2192a 992915i bk11: 2040a 993123i bk12: 1804a 997833i bk13: 1736a 997039i bk14: 1752a 1001526i bk15: 1556a 1001898i 
dram_util_bins: 0 0 0 0 0 0 0 0 0 0
dram_eff_bins: 0 0 0 0 0 0 0 0 0 0
mrqq: max=16 avg=0.225838
Memory Partition 5: 
Cache L2_bank_010:
MSHR contents

Cache L2_bank_011:
MSHR contents

In Dram Latency Queue (total = 0): 
DRAM[5]: 16 bks, busW=4 BL=4 CL=12, tRRD=2 tCCD=6, tRCD=12 tRAS=28 tRP=12 tRC=40
n_cmd=1010840 n_nop=966059 n_act=2937 n_pre=2921 n_req=10627 n_rd=33388 n_write=5535 bw_util=0.03851
n_activity=201206 dram_eff=0.1934
bk0: 2140a 993796i bk1: 2140a 992958i bk2: 2200a 993046i bk3: 2280a 989630i bk4: 2044a 995566i bk5: 2036a 995085i bk6: 2248a 992956i bk7: 2432a 990492i bk8: 2348a 991586i bk9: 2296a 989840i bk10: 2124a 996588i bk11: 2248a 993201i bk12: 1788a 1000322i bk13: 1768a 998885i bk14: 1568a 1001976i bk15: 1728a 1000863i 
dram_util_bins: 0 0 0 0 0 0 0 0 0 0
dram_eff_bins: 0 0 0 0 0 0 0 0 0 0
mrqq: max=16 avg=0.162743

========= L2 cache stats =========
L2_cache_bank[0]: Access = 82017, Miss = 4011, Miss_rate = 0.049, Pending_hits = 19, Reservation_fails = 1015
L2_cache_bank[1]: Access = 82278, Miss = 4109, Miss_rate = 0.050, Pending_hits = 14, Reservation_fails = 2228
L2_cache_bank[2]: Access = 82085, Miss = 4286, Miss_rate = 0.052, Pending_hits = 21, Reservation_fails = 111
L2_cache_bank[3]: Access = 83184, Miss = 4304, Miss_rate = 0.052, Pending_hits = 16, Reservation_fails = 3
L2_cache_bank[4]: Access = 81543, Miss = 4046, Miss_rate = 0.050, Pending_hits = 11, Reservation_fails = 515
L2_cache_bank[5]: Access = 82853, Miss = 4056, Miss_rate = 0.049, Pending_hits = 10, Reservation_fails = 2337
L2_cache_bank[6]: Access = 82534, Miss = 4164, Miss_rate = 0.050, Pending_hits = 15, Reservation_fails = 0
L2_cache_bank[7]: Access = 83344, Miss = 4169, Miss_rate = 0.050, Pending_hits = 15, Reservation_fails = 2
L2_cache_bank[8]: Access = 122210, Miss = 4136, Miss_rate = 0.034, Pending_hits = 11, Reservation_fails = 1728
L2_cache_bank[9]: Access = 83425, Miss = 3924, Miss_rate = 0.047, Pending_hits = 8, Reservation_fails = 2837
L2_cache_bank[10]: Access = 82570, Miss = 4115, Miss_rate = 0.050, Pending_hits = 15, Reservation_fails = 0
L2_cache_bank[11]: Access = 83528, Miss = 4232, Miss_rate = 0.051, Pending_hits = 6, Reservation_fails = 0
L2_total_cache_accesses = 1031571
L2_total_cache_misses = 49552
L2_total_cache_miss_rate = 0.0480
L2_total_cache_pending_hits = 161
L2_total_cache_reservation_fails = 10776
L2_total_cache_breakdown:
	L2_cache_stats_breakdown[GLOBAL_ACC_R][HIT] = 575986
	L2_cache_stats_breakdown[GLOBAL_ACC_R][HIT_RESERVED] = 22
	L2_cache_stats_breakdown[GLOBAL_ACC_R][MISS] = 42509
	L2_cache_stats_breakdown[GLOBAL_ACC_R][RESERVATION_FAIL] = 10426
	L2_cache_stats_breakdown[CONST_ACC_R][HIT] = 11
	L2_cache_stats_breakdown[CONST_ACC_R][HIT_RESERVED] = 3
	L2_cache_stats_breakdown[CONST_ACC_R][MISS] = 1
	L2_cache_stats_breakdown[CONST_ACC_R][RESERVATION_FAIL] = 111
	L2_cache_stats_breakdown[GLOBAL_ACC_W][HIT] = 405811
	L2_cache_stats_breakdown[GLOBAL_ACC_W][HIT_RESERVED] = 130
	L2_cache_stats_breakdown[GLOBAL_ACC_W][MISS] = 7038
	L2_cache_stats_breakdown[GLOBAL_ACC_W][RESERVATION_FAIL] = 12
	L2_cache_stats_breakdown[INST_ACC_R][HIT] = 50
	L2_cache_stats_breakdown[INST_ACC_R][HIT_RESERVED] = 6
	L2_cache_stats_breakdown[INST_ACC_R][MISS] = 4
	L2_cache_stats_breakdown[INST_ACC_R][RESERVATION_FAIL] = 227
L2_cache_data_port_util = 0.297
L2_cache_fill_port_util = 0.022

icnt_total_pkts_mem_to_simt=3505909
icnt_total_pkts_simt_to_mem=1445176
LD_mem_lat_dist  0 0 0 0 0 0 0 0 0 0 0 0 0 0 0 0 0 0 0 0 0 0 0 0 0 0 0
ST_mem_lat_dist  0 0 0 0 0 0 0 0 0 0 0 0 0 0 0 0 0 0 0 0 0 0 0 0 0 0 0
----------------------------Interconnect-DETAILS--------------------------------
Class 0:
Packet latency average = 9.61723
	minimum = 6
	maximum = 27
Network latency average = 8.95291
	minimum = 6
	maximum = 21
Slowest packet = 2062355
Flit latency average = 7.42585
	minimum = 6
	maximum = 17
Slowest flit = 4948586
Fragmentation average = 0
	minimum = 0
	maximum = 0
Injected packet rate average = 0.0259754
	minimum = 0.0196767 (at node 4)
	maximum = 0.0309206 (at node 25)
Accepted packet rate average = 0.0259754
	minimum = 0.0196767 (at node 4)
	maximum = 0.0309206 (at node 25)
Injected flit rate average = 0.0779261
	minimum = 0.0196767 (at node 4)
	maximum = 0.154603 (at node 25)
Accepted flit rate average= 0.0779261
	minimum = 0.0281096 (at node 21)
	maximum = 0.126493 (at node 7)
Injected packet length average = 3
Accepted packet length average = 3
Total in-flight flits = 0 (0 measured)
====== Overall Traffic Statistics ======
====== Traffic class 0 ======
Packet latency average = 32.2218 (9 samples)
	minimum = 6 (9 samples)
	maximum = 326 (9 samples)
Network latency average = 21.1265 (9 samples)
	minimum = 6 (9 samples)
	maximum = 241 (9 samples)
Flit latency average = 15.8342 (9 samples)
	minimum = 6 (9 samples)
	maximum = 239.444 (9 samples)
Fragmentation average = 0.0288163 (9 samples)
	minimum = 0 (9 samples)
	maximum = 145.778 (9 samples)
Injected packet rate average = 0.0510249 (9 samples)
	minimum = 0.0390008 (9 samples)
	maximum = 0.0920913 (9 samples)
Accepted packet rate average = 0.0510249 (9 samples)
	minimum = 0.0390008 (9 samples)
	maximum = 0.0920913 (9 samples)
Injected flit rate average = 0.127081 (9 samples)
	minimum = 0.0515422 (9 samples)
	maximum = 0.247777 (9 samples)
Accepted flit rate average = 0.127081 (9 samples)
	minimum = 0.0678939 (9 samples)
	maximum = 0.219372 (9 samples)
Injected packet size average = 2.49057 (9 samples)
Accepted packet size average = 2.49057 (9 samples)
Hops average = 1 (9 samples)
----------------------------END-of-Interconnect-DETAILS-------------------------


gpgpu_simulation_time = 0 days, 0 hrs, 6 min, 51 sec (411 sec)
gpgpu_simulation_rate = 40869 (inst/sec)
gpgpu_simulation_rate = 1863 (cycle/sec)
GPGPU-Sim: synchronize waiting for inactive GPU simulation
GPGPU-Sim API: Stream Manager State
GPGPU-Sim: detected inactive GPU simulation thread
Kernel Executed 9 times
Processing time: 409929.843750 (ms)
Result stored in result.txt
