

        *** GPGPU-Sim Simulator Version 3.2.2  [build 0] ***


GPGPU-Sim PTX: simulation mode 0 (can change with PTX_SIM_MODE_FUNC environment variable:
               1=functional simulation only, 0=detailed performance simulator)
GPGPU-Sim: Configuration options:

-network_mode                           1 # Interconnection network mode
-inter_config_file   config_fermi_islip.icnt # Interconnection network config file
-gpgpu_ptx_use_cuobjdump                    1 # Use cuobjdump to extract ptx and sass from binaries
-gpgpu_experimental_lib_support                    0 # Try to extract code from cuda libraries [Broken because of unknown cudaGetExportTable]
-gpgpu_ptx_convert_to_ptxplus                    0 # Convert SASS (native ISA) to ptxplus and run ptxplus
-gpgpu_ptx_force_max_capability                   20 # Force maximum compute capability
-gpgpu_ptx_inst_debug_to_file                    0 # Dump executed instructions' debug information to file
-gpgpu_ptx_inst_debug_file       inst_debug.txt # Executed instructions' debug output file
-gpgpu_ptx_inst_debug_thread_uid                    1 # Thread UID for executed instructions' debug output
-gpgpu_simd_model                       1 # 1 = post-dominator
-gpgpu_shader_core_pipeline              1536:32 # shader core pipeline config, i.e., {<nthread>:<warpsize>}
-gpgpu_tex_cache:l1  4:128:24,L:R:m:N:L,F:128:4,128:2 # per-shader L1 texture cache  (READ-ONLY) config  {<nsets>:<bsize>:<assoc>,<rep>:<wr>:<alloc>:<wr_alloc>,<mshr>:<N>:<merge>,<mq>:<rf>}
-gpgpu_const_cache:l1 64:64:2,L:R:f:N:L,A:2:32,4 # per-shader L1 constant memory cache  (READ-ONLY) config  {<nsets>:<bsize>:<assoc>,<rep>:<wr>:<alloc>:<wr_alloc>,<mshr>:<N>:<merge>,<mq>} 
-gpgpu_cache:il1     4:128:4,L:R:f:N:L,A:2:32,4 # shader L1 instruction cache config  {<nsets>:<bsize>:<assoc>,<rep>:<wr>:<alloc>:<wr_alloc>,<mshr>:<N>:<merge>,<mq>} 
-gpgpu_cache:dl1     32:256:4,L:L:m:N:H,A:32:8,8 # per-shader L1 data cache config  {<nsets>:<bsize>:<assoc>,<rep>:<wr>:<alloc>:<wr_alloc>,<mshr>:<N>:<merge>,<mq> | none}
-gpgpu_cache:dl1PrefL1                 none # per-shader L1 data cache config  {<nsets>:<bsize>:<assoc>,<rep>:<wr>:<alloc>:<wr_alloc>,<mshr>:<N>:<merge>,<mq> | none}
-gpgpu_cache:dl1PreShared                 none # per-shader L1 data cache config  {<nsets>:<bsize>:<assoc>,<rep>:<wr>:<alloc>:<wr_alloc>,<mshr>:<N>:<merge>,<mq> | none}
-gmem_skip_L1D                          0 # global memory access skip L1D cache (implements -Xptxas -dlcm=cg, default=no skip)
-gpgpu_perfect_mem                      0 # enable perfect memory mode (no cache miss)
-n_regfile_gating_group                    4 # group of lanes that should be read/written together)
-gpgpu_clock_gated_reg_file                    0 # enable clock gated reg file for power calculations
-gpgpu_clock_gated_lanes                    0 # enable clock gated lanes for power calculations
-gpgpu_shader_registers                32768 # Number of registers per shader core. Limits number of concurrent CTAs. (default 8192)
-gpgpu_shader_cta                       8 # Maximum number of concurrent CTAs in shader (default 8)
-gpgpu_num_cta_barriers                   16 # Maximum number of named barriers per CTA (default 16)
-gpgpu_n_clusters                      15 # number of processing clusters
-gpgpu_n_cores_per_cluster                    1 # number of simd cores per cluster
-gpgpu_n_cluster_ejection_buffer_size                    8 # number of packets in ejection buffer
-gpgpu_n_ldst_response_buffer_size                    2 # number of response packets in ld/st unit ejection buffer
-gpgpu_shmem_size                   16384 # Size of shared memory per shader core (default 16kB)
-gpgpu_shmem_size                   49152 # Size of shared memory per shader core (default 16kB)
-gpgpu_shmem_size_PrefL1                16384 # Size of shared memory per shader core (default 16kB)
-gpgpu_shmem_size_PrefShared                16384 # Size of shared memory per shader core (default 16kB)
-gpgpu_shmem_num_banks                   32 # Number of banks in the shared memory in each shader core (default 16)
-gpgpu_shmem_limited_broadcast                    0 # Limit shared memory to do one broadcast per cycle (default on)
-gpgpu_shmem_warp_parts                    1 # Number of portions a warp is divided into for shared memory bank conflict check 
-gpgpu_warpdistro_shader                   -1 # Specify which shader core to collect the warp size distribution from
-gpgpu_warp_issue_shader                    0 # Specify which shader core to collect the warp issue distribution from
-gpgpu_local_mem_map                    1 # Mapping from local memory space address to simulated GPU physical address space (default = enabled)
-gpgpu_num_reg_banks                   16 # Number of register banks (default = 8)
-gpgpu_reg_bank_use_warp_id                    0 # Use warp ID in mapping registers to banks (default = off)
-gpgpu_operand_collector_num_units_sp                    6 # number of collector units (default = 4)
-gpgpu_operand_collector_num_units_sfu                    8 # number of collector units (default = 4)
-gpgpu_operand_collector_num_units_mem                    2 # number of collector units (default = 2)
-gpgpu_operand_collector_num_units_gen                    0 # number of collector units (default = 0)
-gpgpu_operand_collector_num_in_ports_sp                    2 # number of collector unit in ports (default = 1)
-gpgpu_operand_collector_num_in_ports_sfu                    1 # number of collector unit in ports (default = 1)
-gpgpu_operand_collector_num_in_ports_mem                    1 # number of collector unit in ports (default = 1)
-gpgpu_operand_collector_num_in_ports_gen                    0 # number of collector unit in ports (default = 0)
-gpgpu_operand_collector_num_out_ports_sp                    2 # number of collector unit in ports (default = 1)
-gpgpu_operand_collector_num_out_ports_sfu                    1 # number of collector unit in ports (default = 1)
-gpgpu_operand_collector_num_out_ports_mem                    1 # number of collector unit in ports (default = 1)
-gpgpu_operand_collector_num_out_ports_gen                    0 # number of collector unit in ports (default = 0)
-gpgpu_coalesce_arch                   13 # Coalescing arch (default = 13, anything else is off for now)
-gpgpu_num_sched_per_core                    2 # Number of warp schedulers per core
-gpgpu_max_insn_issue_per_warp                    1 # Max number of instructions that can be issued per warp in one cycle by scheduler
-gpgpu_simt_core_sim_order                    1 # Select the simulation order of cores in a cluster (0=Fix, 1=Round-Robin)
-gpgpu_pipeline_widths        2,1,1,2,1,1,2 # Pipeline widths ID_OC_SP,ID_OC_SFU,ID_OC_MEM,OC_EX_SP,OC_EX_SFU,OC_EX_MEM,EX_WB
-gpgpu_num_sp_units                     2 # Number of SP units (default=1)
-gpgpu_num_sfu_units                    1 # Number of SF units (default=1)
-gpgpu_num_mem_units                    1 # Number if ldst units (default=1) WARNING: not hooked up to anything
-gpgpu_scheduler                      gto # Scheduler configuration: < lrr | gto | two_level_active > If two_level_active:<num_active_warps>:<inner_prioritization>:<outer_prioritization>For complete list of prioritization values see shader.h enum scheduler_prioritization_typeDefault: gto
-gpgpu_dram_scheduler                    1 # 0 = fifo, 1 = FR-FCFS (defaul)
-gpgpu_dram_partition_queues              8:8:8:8 # i2$:$2d:d2$:$2i
-l2_ideal                               0 # Use a ideal L2 cache that always hit
-gpgpu_cache:dl2     64:256:4,L:B:m:W:L,A:32:4,4:0,32 # unified banked L2 data cache config  {<nsets>:<bsize>:<assoc>,<rep>:<wr>:<alloc>:<wr_alloc>,<mshr>:<N>:<merge>,<mq>}
-gpgpu_cache:dl2_texture_only                    0 # L2 cache used for texture only
-gpgpu_n_mem                            6 # number of memory modules (e.g. memory controllers) in gpu
-gpgpu_n_sub_partition_per_mchannel                    2 # number of memory subpartition in each memory module
-gpgpu_n_mem_per_ctrlr                    2 # number of memory chips per memory controller
-gpgpu_memlatency_stat                   14 # track and display latency statistics 0x2 enables MC, 0x4 enables queue logs
-gpgpu_frfcfs_dram_sched_queue_size                   16 # 0 = unlimited (default); # entries per chip
-gpgpu_dram_return_queue_size                  116 # 0 = unlimited (default); # entries per chip
-gpgpu_dram_buswidth                    4 # default = 4 bytes (8 bytes per cycle at DDR)
-gpgpu_dram_burst_length                    8 # Burst length of each DRAM request (default = 4 data bus cycle)
-dram_data_command_freq_ratio                    4 # Frequency ratio between DRAM data bus and command bus (default = 2 times, i.e. DDR)
-gpgpu_dram_timing_opt nbk=16:CCD=2:RRD=6:RCD=12:RAS=28:RP=12:RC=40: CL=12:WL=4:CDLR=5:WR=12:nbkgrp=4:CCDL=3:RTPL=2 # DRAM timing parameters = {nbk:tCCD:tRRD:tRCD:tRAS:tRP:tRC:CL:WL:tCDLR:tWR:nbkgrp:tCCDL:tRTPL}
-rop_latency                          120 # ROP queue latency (default 85)
-dram_latency                         100 # DRAM latency (default 30)
-gpgpu_mem_addr_mapping dramid@8;00000000.00000000.00000000.00000000.0000RRRR.RRRRRRRR.BBBCCCCB.CCSSSSSS # mapping memory address to dram model {dramid@<start bit>;<memory address map>}
-gpgpu_mem_addr_test                    0 # run sweep test to check address mapping for aliased address
-gpgpu_mem_address_mask                    1 # 0 = old addressing mask, 1 = new addressing mask, 2 = new add. mask + flipped bank sel and chip sel bits
-gpuwattch_xml_file  gpuwattch_gtx480.xml # GPUWattch XML file
-power_simulation_enabled                    0 # Turn on power simulator (1=On, 0=Off)
-power_per_cycle_dump                    0 # Dump detailed power output each cycle
-power_trace_enabled                    0 # produce a file for the power trace (1=On, 0=Off)
-power_trace_zlevel                     6 # Compression level of the power trace output log (0=no comp, 9=highest)
-steady_power_levels_enabled                    0 # produce a file for the steady power levels (1=On, 0=Off)
-steady_state_definition                  8:4 # allowed deviation:number of samples
-gpgpu_max_cycle                        0 # terminates gpu simulation early (0 = no limit)
-gpgpu_max_insn                         0 # terminates gpu simulation early (0 = no limit)
-gpgpu_max_cta                          0 # terminates gpu simulation early (0 = no limit)
-gpgpu_runtime_stat                   500 # display runtime statistics such as dram utilization {<freq>:<flag>}
-liveness_message_freq                    1 # Minimum number of seconds between simulation liveness messages (0 = always print)
-gpgpu_flush_l1_cache                    0 # Flush L1 cache at the end of each kernel call
-gpgpu_flush_l2_cache                    0 # Flush L2 cache at the end of each kernel call
-gpgpu_deadlock_detect                    1 # Stop the simulation at deadlock (1=on (default), 0=off)
-gpgpu_ptx_instruction_classification                    0 # if enabled will classify ptx instruction types per kernel (Max 255 kernels now)
-gpgpu_ptx_sim_mode                     0 # Select between Performance (default) or Functional simulation (1)
-gpgpu_clock_domains 700.0:700.0:700.0:924.0 # Clock Domain Frequencies in MhZ {<Core Clock>:<ICNT Clock>:<L2 Clock>:<DRAM Clock>}
-gpgpu_max_concurrent_kernel                    8 # maximum kernels that can run concurrently on GPU
-gpgpu_cflog_interval                    0 # Interval between each snapshot in control flow logger
-visualizer_enabled                     0 # Turn on visualizer output (1=On, 0=Off)
-visualizer_outputfile                 NULL # Specifies the output log file for visualizer
-visualizer_zlevel                      6 # Compression level of the visualizer output log (0=no comp, 9=highest)
-trace_enabled                          0 # Turn on traces
-trace_components                    none # comma seperated list of traces to enable. Complete list found in trace_streams.tup. Default none
-trace_sampling_core                    0 # The core which is printed using CORE_DPRINTF. Default 0
-trace_sampling_memory_partition                   -1 # The memory partition which is printed using MEMPART_DPRINTF. Default -1 (i.e. all)
-enable_ptx_file_line_stats                    1 # Turn on PTX source line statistic profiling. (1 = On)
-ptx_line_stats_filename gpgpu_inst_stats.txt # Output file for PTX source line statistics.
-save_embedded_ptx                      0 # saves ptx files embedded in binary as <n>.ptx
-keep                                   0 # keep intermediate files created by GPGPU-Sim when interfacing with external programs
-gpgpu_ptx_save_converted_ptxplus                    0 # Saved converted ptxplus to a file
-ptx_opcode_latency_int         4,13,4,5,145 # Opcode latencies for integers <ADD,MAX,MUL,MAD,DIV>Default 1,1,19,25,145
-ptx_opcode_latency_fp          4,13,4,5,39 # Opcode latencies for single precision floating points <ADD,MAX,MUL,MAD,DIV>Default 1,1,1,1,30
-ptx_opcode_latency_dp         8,19,8,8,330 # Opcode latencies for double precision floating points <ADD,MAX,MUL,MAD,DIV>Default 8,8,8,8,335
-ptx_opcode_initiation_int            1,2,2,1,8 # Opcode initiation intervals for integers <ADD,MAX,MUL,MAD,DIV>Default 1,1,4,4,32
-ptx_opcode_initiation_fp            1,2,1,1,4 # Opcode initiation intervals for single precision floating points <ADD,MAX,MUL,MAD,DIV>Default 1,1,1,1,5
-ptx_opcode_initiation_dp         8,16,8,8,130 # Opcode initiation intervals for double precision floating points <ADD,MAX,MUL,MAD,DIV>Default 8,8,8,8,130
DRAM Timing Options:
nbk                                    16 # number of banks
CCD                                     2 # column to column delay
RRD                                     6 # minimal delay between activation of rows in different banks
RCD                                    12 # row to column delay
RAS                                    28 # time needed to activate row
RP                                     12 # time needed to precharge (deactivate) row
RC                                     40 # row cycle time
CDLR                                    5 # switching from write to read (changes tWTR)
WR                                     12 # last data-in to row precharge
CL                                     12 # CAS latency
WL                                      4 # Write latency
nbkgrp                                  4 # number of bank groups
CCDL                                    3 # column to column delay between accesses to different bank groups
RTPL                                    2 # read to precharge delay between accesses to different bank groups
Total number of memory sub partition = 12
addr_dec_mask[CHIP]  = 0000000000000000 	high:64 low:0
addr_dec_mask[BK]    = 000000000000e100 	high:16 low:8
addr_dec_mask[ROW]   = 000000000fff0000 	high:28 low:16
addr_dec_mask[COL]   = 0000000000001eff 	high:13 low:0
addr_dec_mask[BURST] = 000000000000003f 	high:6 low:0
sub_partition_id_mask = 0000000000000100
GPGPU-Sim uArch: clock freqs: 700000000.000000:700000000.000000:700000000.000000:924000000.000000
GPGPU-Sim uArch: clock periods: 0.00000000142857142857:0.00000000142857142857:0.00000000142857142857:0.00000000108225108225
*** Initializing Memory Statistics ***
GPGPU-Sim uArch: interconnect node map (shaderID+MemID to icntID)
GPGPU-Sim uArch: Memory nodes ID start from index: 15
GPGPU-Sim uArch:    0   1   2   3   4
GPGPU-Sim uArch:    5   6   7   8   9
GPGPU-Sim uArch:   10  11  12  13  14
GPGPU-Sim uArch:   15  16  17  18  19
GPGPU-Sim uArch:   20  21  22  23  24
GPGPU-Sim uArch:   25  26
GPGPU-Sim uArch: interconnect node reverse map (icntID to shaderID+MemID)
GPGPU-Sim uArch: Memory nodes start from ID: 15
GPGPU-Sim uArch:    0   1   2   3   4
GPGPU-Sim uArch:    5   6   7   8   9
GPGPU-Sim uArch:   10  11  12  13  14
GPGPU-Sim uArch:   15  16  17  18  19
GPGPU-Sim uArch:   20  21  22  23  24
GPGPU-Sim uArch:   25  26
c498d9f32ab5dd92351405d48e0f6df7  /sciclone/data20/adwait/applications/benchmarks/CUDA/BFS/gpgpu_ptx_sim__BFS
GPGPU-Sim uArch: performance model initialization complete.
GPGPU-Sim PTX: __cudaRegisterFatBinary, fat_cubin_handle = 1, filename=bfs.cu
self exe links to: /sciclone/data20/adwait/applications/benchmarks/CUDA/BFS/gpgpu_ptx_sim__BFS
Running md5sum using "md5sum /sciclone/data20/adwait/applications/benchmarks/CUDA/BFS/gpgpu_ptx_sim__BFS "
Parsing file _cuobjdump_complete_output_v7w5xJ
######### cuobjdump parser ########
## Adding new section ELF
Adding arch: sm_20
Adding identifier: bfs.cu
## Adding new section PTX
Adding ptx filename: _cuobjdump_1.ptx
Adding arch: sm_20
Adding identifier: bfs.cu
Done parsing!!!
GPGPU-Sim PTX: __cudaRegisterFunction _Z6KernelP4NodePiPbS2_S1_S2_i : hostFun 0x0x405636, fat_cubin_handle = 1
GPGPU-Sim PTX: instruction assembly for function '_Z6KernelP4NodePiPbS2_S1_S2_i'...   done.
GPGPU-Sim PTX: finding reconvergence points for '_Z6KernelP4NodePiPbS2_S1_S2_i'...
GPGPU-Sim PTX: Finding dominators for '_Z6KernelP4NodePiPbS2_S1_S2_i'...
GPGPU-Sim PTX: Finding immediate dominators for '_Z6KernelP4NodePiPbS2_S1_S2_i'...
GPGPU-Sim PTX: Finding postdominators for '_Z6KernelP4NodePiPbS2_S1_S2_i'...
GPGPU-Sim PTX: Finding immediate postdominators for '_Z6KernelP4NodePiPbS2_S1_S2_i'...
GPGPU-Sim PTX: pre-decoding instructions for '_Z6KernelP4NodePiPbS2_S1_S2_i'...
GPGPU-Sim PTX: reconvergence points for _Z6KernelP4NodePiPbS2_S1_S2_i...
GPGPU-Sim PTX:  1 (potential) branch divergence @  PC=0x030 (_1.ptx:72) @%p1 bra $Lt_0_5122;
GPGPU-Sim PTX:    immediate post dominator      @  PC=0x1e8 (_1.ptx:141) exit;
GPGPU-Sim PTX:  2 (potential) branch divergence @  PC=0x068 (_1.ptx:79) @%p2 bra $Lt_0_5122;
GPGPU-Sim PTX:    immediate post dominator      @  PC=0x1e8 (_1.ptx:141) exit;
GPGPU-Sim PTX:  3 (potential) branch divergence @  PC=0x0e0 (_1.ptx:97) @%p3 bra $Lt_0_5122;
GPGPU-Sim PTX:    immediate post dominator      @  PC=0x1e8 (_1.ptx:141) exit;
GPGPU-Sim PTX:  4 (potential) branch divergence @  PC=0x138 (_1.ptx:111) @%p4 bra $Lt_0_4354;
GPGPU-Sim PTX:    immediate post dominator      @  PC=0x1c8 (_1.ptx:134) add.s32 %r11, %r11, 1;
GPGPU-Sim PTX:  5 (potential) branch divergence @  PC=0x1e0 (_1.ptx:137) @%p5 bra $Lt_0_4098;
GPGPU-Sim PTX:    immediate post dominator      @  PC=0x1e8 (_1.ptx:141) exit;
GPGPU-Sim PTX: ... end of reconvergence points for _Z6KernelP4NodePiPbS2_S1_S2_i
GPGPU-Sim PTX: ... done pre-decoding instructions for '_Z6KernelP4NodePiPbS2_S1_S2_i'.
GPGPU-Sim PTX: finished parsing EMBEDDED .ptx file _1.ptx
Adding _cuobjdump_1.ptx with cubin handle 1
GPGPU-Sim PTX: extracting embedded .ptx to temporary file "_ptx_XbglZM"
Running: cat _ptx_XbglZM | sed 's/.version 1.5/.version 1.4/' | sed 's/, texmode_independent//' | sed 's/\(\.extern \.const\[1\] .b8 \w\+\)\[\]/\1\[1\]/' | sed 's/const\[.\]/const\[0\]/g' > _ptx2_956GmR
GPGPU-Sim PTX: generating ptxinfo using "$CUDA_INSTALL_PATH/bin/ptxas --gpu-name=sm_20 -v _ptx2_956GmR --output-file  /dev/null 2> _ptx_XbglZMinfo"
GPGPU-Sim PTX: Kernel '_Z6KernelP4NodePiPbS2_S1_S2_i' : regs=18, lmem=0, smem=0, cmem=84
GPGPU-Sim PTX: removing ptxinfo using "rm -f _ptx_XbglZM _ptx2_956GmR _ptx_XbglZMinfo"
GPGPU-Sim PTX: loading globals with explicit initializers... 
GPGPU-Sim PTX: finished loading globals (0 bytes total).
GPGPU-Sim PTX: loading constants with explicit initializers...  done.
Reading File
Input file: ./data/graph65536.txt
Read File
Copied Everything to GPU memory

GPGPU-Sim PTX: cudaLaunch for 0x0x405636 (mode=performance simulation) on stream 0
GPGPU-Sim PTX: pushing kernel '_Z6KernelP4NodePiPbS2_S1_S2_i' to stream 0, gridDim= (256,1,1) blockDim = (256,1,1) 
kernel '_Z6KernelP4NodePiPbS2_S1_S2_i' transfer to GPU hardware scheduler
GPGPU-Sim uArch: Shader 1 bind to kernel 1 '_Z6KernelP4NodePiPbS2_S1_S2_i'
GPGPU-Sim uArch: CTA/core = 6, limited by: threads regs
GPGPU-Sim uArch: core:  1, cta: 0 initialized @(1,0)
GPGPU-Sim uArch: Shader 2 bind to kernel 1 '_Z6KernelP4NodePiPbS2_S1_S2_i'
GPGPU-Sim uArch: core:  2, cta: 0 initialized @(1,0)
GPGPU-Sim uArch: Shader 3 bind to kernel 1 '_Z6KernelP4NodePiPbS2_S1_S2_i'
GPGPU-Sim uArch: core:  3, cta: 0 initialized @(1,0)
GPGPU-Sim uArch: Shader 4 bind to kernel 1 '_Z6KernelP4NodePiPbS2_S1_S2_i'
GPGPU-Sim uArch: core:  4, cta: 0 initialized @(1,0)
GPGPU-Sim uArch: Shader 5 bind to kernel 1 '_Z6KernelP4NodePiPbS2_S1_S2_i'
GPGPU-Sim uArch: core:  5, cta: 0 initialized @(1,0)
GPGPU-Sim uArch: Shader 6 bind to kernel 1 '_Z6KernelP4NodePiPbS2_S1_S2_i'
GPGPU-Sim uArch: core:  6, cta: 0 initialized @(1,0)
GPGPU-Sim uArch: Shader 7 bind to kernel 1 '_Z6KernelP4NodePiPbS2_S1_S2_i'
GPGPU-Sim uArch: core:  7, cta: 0 initialized @(1,0)
GPGPU-Sim uArch: Shader 8 bind to kernel 1 '_Z6KernelP4NodePiPbS2_S1_S2_i'
GPGPU-Sim uArch: core:  8, cta: 0 initialized @(1,0)
GPGPU-Sim uArch: Shader 9 bind to kernel 1 '_Z6KernelP4NodePiPbS2_S1_S2_i'
GPGPU-Sim uArch: core:  9, cta: 0 initialized @(1,0)
GPGPU-Sim uArch: Shader 10 bind to kernel 1 '_Z6KernelP4NodePiPbS2_S1_S2_i'
GPGPU-Sim uArch: core: 10, cta: 0 initialized @(1,0)
GPGPU-Sim uArch: Shader 11 bind to kernel 1 '_Z6KernelP4NodePiPbS2_S1_S2_i'
GPGPU-Sim uArch: core: 11, cta: 0 initialized @(1,0)
GPGPU-Sim uArch: Shader 12 bind to kernel 1 '_Z6KernelP4NodePiPbS2_S1_S2_i'
GPGPU-Sim uArch: core: 12, cta: 0 initialized @(1,0)
GPGPU-Sim uArch: Shader 13 bind to kernel 1 '_Z6KernelP4NodePiPbS2_S1_S2_i'
GPGPU-Sim uArch: core: 13, cta: 0 initialized @(1,0)
GPGPU-Sim uArch: Shader 14 bind to kernel 1 '_Z6KernelP4NodePiPbS2_S1_S2_i'
GPGPU-Sim uArch: core: 14, cta: 0 initialized @(1,0)
GPGPU-Sim uArch: Shader 0 bind to kernel 1 '_Z6KernelP4NodePiPbS2_S1_S2_i'
GPGPU-Sim uArch: core:  0, cta: 0 initialized @(1,0)
GPGPU-Sim uArch: core:  1, cta: 1 initialized @(2,0)
GPGPU-Sim uArch: core:  2, cta: 1 initialized @(2,0)
GPGPU-Sim uArch: core:  3, cta: 1 initialized @(2,0)
GPGPU-Sim uArch: core:  4, cta: 1 initialized @(2,0)
GPGPU-Sim uArch: core:  5, cta: 1 initialized @(2,0)
GPGPU-Sim uArch: core:  6, cta: 1 initialized @(2,0)
GPGPU-Sim uArch: core:  7, cta: 1 initialized @(2,0)
GPGPU-Sim uArch: core:  8, cta: 1 initialized @(2,0)
GPGPU-Sim uArch: core:  9, cta: 1 initialized @(2,0)
GPGPU-Sim uArch: core: 10, cta: 1 initialized @(2,0)
GPGPU-Sim uArch: core: 11, cta: 1 initialized @(2,0)
GPGPU-Sim uArch: core: 12, cta: 1 initialized @(2,0)
GPGPU-Sim uArch: core: 13, cta: 1 initialized @(2,0)
GPGPU-Sim uArch: core: 14, cta: 1 initialized @(2,0)
GPGPU-Sim uArch: core:  0, cta: 1 initialized @(2,0)
GPGPU-Sim uArch: core:  1, cta: 2 initialized @(3,0)
GPGPU-Sim uArch: core:  2, cta: 2 initialized @(3,0)
GPGPU-Sim uArch: core:  3, cta: 2 initialized @(3,0)
GPGPU-Sim uArch: core:  4, cta: 2 initialized @(3,0)
GPGPU-Sim uArch: core:  5, cta: 2 initialized @(3,0)
GPGPU-Sim uArch: core:  6, cta: 2 initialized @(3,0)
GPGPU-Sim uArch: core:  7, cta: 2 initialized @(3,0)
GPGPU-Sim uArch: core:  8, cta: 2 initialized @(3,0)
GPGPU-Sim uArch: core:  9, cta: 2 initialized @(3,0)
GPGPU-Sim uArch: core: 10, cta: 2 initialized @(3,0)
GPGPU-Sim uArch: core: 11, cta: 2 initialized @(3,0)
GPGPU-Sim uArch: core: 12, cta: 2 initialized @(3,0)
GPGPU-Sim uArch: core: 13, cta: 2 initialized @(3,0)
GPGPU-Sim uArch: core: 14, cta: 2 initialized @(3,0)
GPGPU-Sim uArch: core:  0, cta: 2 initialized @(3,0)
GPGPU-Sim uArch: core:  1, cta: 3 initialized @(4,0)
GPGPU-Sim uArch: core:  2, cta: 3 initialized @(4,0)
GPGPU-Sim uArch: core:  3, cta: 3 initialized @(4,0)
GPGPU-Sim uArch: core:  4, cta: 3 initialized @(4,0)
GPGPU-Sim uArch: core:  5, cta: 3 initialized @(4,0)
GPGPU-Sim uArch: core:  6, cta: 3 initialized @(4,0)
GPGPU-Sim uArch: core:  7, cta: 3 initialized @(4,0)
GPGPU-Sim uArch: core:  8, cta: 3 initialized @(4,0)
GPGPU-Sim uArch: core:  9, cta: 3 initialized @(4,0)
GPGPU-Sim uArch: core: 10, cta: 3 initialized @(4,0)
GPGPU-Sim uArch: core: 11, cta: 3 initialized @(4,0)
GPGPU-Sim uArch: core: 12, cta: 3 initialized @(4,0)
GPGPU-Sim uArch: core: 13, cta: 3 initialized @(4,0)
GPGPU-Sim uArch: core: 14, cta: 3 initialized @(4,0)
GPGPU-Sim uArch: core:  0, cta: 3 initialized @(4,0)
GPGPU-Sim uArch: core:  1, cta: 4 initialized @(5,0)
GPGPU-Sim uArch: core:  2, cta: 4 initialized @(5,0)
GPGPU-Sim uArch: core:  3, cta: 4 initialized @(5,0)
GPGPU-Sim uArch: core:  4, cta: 4 initialized @(5,0)
GPGPU-Sim uArch: core:  5, cta: 4 initialized @(5,0)
GPGPU-Sim uArch: core:  6, cta: 4 initialized @(5,0)
GPGPU-Sim uArch: core:  7, cta: 4 initialized @(5,0)
GPGPU-Sim uArch: core:  8, cta: 4 initialized @(5,0)
GPGPU-Sim uArch: core:  9, cta: 4 initialized @(5,0)
GPGPU-Sim uArch: core: 10, cta: 4 initialized @(5,0)
GPGPU-Sim uArch: core: 11, cta: 4 initialized @(5,0)
GPGPU-Sim uArch: core: 12, cta: 4 initialized @(5,0)
GPGPU-Sim uArch: core: 13, cta: 4 initialized @(5,0)
GPGPU-Sim uArch: core: 14, cta: 4 initialized @(5,0)
GPGPU-Sim uArch: core:  0, cta: 4 initialized @(5,0)
GPGPU-Sim uArch: core:  1, cta: 5 initialized @(6,0)
GPGPU-Sim uArch: core:  2, cta: 5 initialized @(6,0)
GPGPU-Sim uArch: core:  3, cta: 5 initialized @(6,0)
GPGPU-Sim uArch: core:  4, cta: 5 initialized @(6,0)
GPGPU-Sim uArch: core:  5, cta: 5 initialized @(6,0)
GPGPU-Sim uArch: core:  6, cta: 5 initialized @(6,0)
GPGPU-Sim uArch: core:  7, cta: 5 initialized @(6,0)
GPGPU-Sim uArch: core:  8, cta: 5 initialized @(6,0)
GPGPU-Sim uArch: core:  9, cta: 5 initialized @(6,0)
GPGPU-Sim uArch: core: 10, cta: 5 initialized @(6,0)
GPGPU-Sim uArch: core: 11, cta: 5 initialized @(6,0)
GPGPU-Sim uArch: core: 12, cta: 5 initialized @(6,0)
GPGPU-Sim uArch: core: 13, cta: 5 initialized @(6,0)
GPGPU-Sim uArch: core: 14, cta: 5 initialized @(6,0)
GPGPU-Sim uArch: core:  0, cta: 5 initialized @(6,0)
GPGPU-Sim PTX: 100000 instructions simulated : ctaid=(68,0,0) tid=(63,0,0)
GPGPU-Sim uArch: cycles simulated: 500  inst.: 92032 (ipc=184.1) sim_rate=46016 (inst/sec) elapsed = 0:0:00:02 / Fri Mar  4 17:16:46 2016
GPGPU-Sim PTX: 200000 instructions simulated : ctaid=(58,0,0) tid=(127,0,0)
GPGPU-Sim PTX: 300000 instructions simulated : ctaid=(45,0,0) tid=(29,0,0)
GPGPU-Sim uArch: Shader 2 finished CTA #0 (1261,0), 5 CTAs running
GPGPU-Sim uArch: Shader 2 finished CTA #1 (1261,0), 4 CTAs running
GPGPU-Sim uArch: Shader 2 finished CTA #2 (1261,0), 3 CTAs running
GPGPU-Sim uArch: core:  2, cta: 0 initialized @(1262,0)
GPGPU-Sim uArch: core:  2, cta: 1 initialized @(1263,0)
GPGPU-Sim uArch: core:  2, cta: 2 initialized @(1264,0)
GPGPU-Sim uArch: Shader 3 finished CTA #0 (1275,0), 5 CTAs running
GPGPU-Sim uArch: Shader 3 finished CTA #1 (1275,0), 4 CTAs running
GPGPU-Sim uArch: Shader 3 finished CTA #2 (1275,0), 3 CTAs running
GPGPU-Sim uArch: Shader 3 finished CTA #3 (1275,0), 2 CTAs running
GPGPU-Sim uArch: core:  3, cta: 0 initialized @(1276,0)
GPGPU-Sim uArch: core:  3, cta: 1 initialized @(1277,0)
GPGPU-Sim uArch: core:  3, cta: 2 initialized @(1278,0)
GPGPU-Sim uArch: core:  3, cta: 3 initialized @(1279,0)
GPGPU-Sim uArch: Shader 4 finished CTA #0 (1281,0), 5 CTAs running
GPGPU-Sim uArch: Shader 4 finished CTA #1 (1281,0), 4 CTAs running
GPGPU-Sim uArch: Shader 4 finished CTA #2 (1281,0), 3 CTAs running
GPGPU-Sim uArch: Shader 4 finished CTA #3 (1281,0), 2 CTAs running
GPGPU-Sim uArch: core:  4, cta: 0 initialized @(1282,0)
GPGPU-Sim uArch: Shader 0 finished CTA #0 (1282,0), 5 CTAs running
GPGPU-Sim uArch: Shader 0 finished CTA #1 (1282,0), 4 CTAs running
GPGPU-Sim uArch: Shader 0 finished CTA #2 (1282,0), 3 CTAs running
GPGPU-Sim uArch: Shader 5 finished CTA #0 (1282,0), 5 CTAs running
GPGPU-Sim uArch: Shader 5 finished CTA #1 (1282,0), 4 CTAs running
GPGPU-Sim uArch: Shader 5 finished CTA #2 (1282,0), 3 CTAs running
GPGPU-Sim uArch: core:  5, cta: 0 initialized @(1283,0)
GPGPU-Sim uArch: core:  0, cta: 0 initialized @(1283,0)
GPGPU-Sim uArch: core:  4, cta: 1 initialized @(1283,0)
GPGPU-Sim uArch: core:  5, cta: 1 initialized @(1284,0)
GPGPU-Sim uArch: core:  0, cta: 1 initialized @(1284,0)
GPGPU-Sim uArch: core:  4, cta: 2 initialized @(1284,0)
GPGPU-Sim uArch: core:  5, cta: 2 initialized @(1285,0)
GPGPU-Sim uArch: core:  0, cta: 2 initialized @(1285,0)
GPGPU-Sim uArch: core:  4, cta: 3 initialized @(1285,0)
GPGPU-Sim uArch: Shader 1 finished CTA #1 (1294,0), 5 CTAs running
GPGPU-Sim uArch: Shader 1 finished CTA #2 (1294,0), 4 CTAs running
GPGPU-Sim uArch: Shader 1 finished CTA #3 (1294,0), 3 CTAs running
GPGPU-Sim uArch: core:  1, cta: 1 initialized @(1295,0)
GPGPU-Sim uArch: Shader 6 finished CTA #0 (1295,0), 5 CTAs running
GPGPU-Sim uArch: Shader 6 finished CTA #1 (1295,0), 4 CTAs running
GPGPU-Sim uArch: Shader 6 finished CTA #2 (1295,0), 3 CTAs running
GPGPU-Sim uArch: core:  6, cta: 0 initialized @(1296,0)
GPGPU-Sim uArch: core:  1, cta: 2 initialized @(1296,0)
GPGPU-Sim uArch: core:  6, cta: 1 initialized @(1297,0)
GPGPU-Sim uArch: core:  1, cta: 3 initialized @(1297,0)
GPGPU-Sim uArch: core:  6, cta: 2 initialized @(1298,0)
GPGPU-Sim uArch: Shader 2 finished CTA #3 (1298,0), 5 CTAs running
GPGPU-Sim uArch: Shader 2 finished CTA #4 (1298,0), 4 CTAs running
GPGPU-Sim uArch: Shader 2 finished CTA #5 (1298,0), 3 CTAs running
GPGPU-Sim uArch: core:  2, cta: 3 initialized @(1299,0)
GPGPU-Sim uArch: core:  2, cta: 4 initialized @(1300,0)
GPGPU-Sim uArch: core:  2, cta: 5 initialized @(1301,0)
GPGPU-Sim uArch: Shader 7 finished CTA #0 (1306,0), 5 CTAs running
GPGPU-Sim uArch: Shader 7 finished CTA #1 (1306,0), 4 CTAs running
GPGPU-Sim uArch: Shader 7 finished CTA #2 (1306,0), 3 CTAs running
GPGPU-Sim uArch: core:  7, cta: 0 initialized @(1307,0)
GPGPU-Sim uArch: core:  7, cta: 1 initialized @(1308,0)
GPGPU-Sim uArch: Shader 8 finished CTA #0 (1308,0), 5 CTAs running
GPGPU-Sim uArch: Shader 8 finished CTA #1 (1308,0), 4 CTAs running
GPGPU-Sim uArch: Shader 8 finished CTA #2 (1308,0), 3 CTAs running
GPGPU-Sim uArch: core:  8, cta: 0 initialized @(1309,0)
GPGPU-Sim uArch: core:  7, cta: 2 initialized @(1309,0)
GPGPU-Sim uArch: core:  8, cta: 1 initialized @(1310,0)
GPGPU-Sim uArch: core:  8, cta: 2 initialized @(1311,0)
GPGPU-Sim uArch: Shader 3 finished CTA #4 (1312,0), 5 CTAs running
GPGPU-Sim uArch: Shader 3 finished CTA #5 (1312,0), 4 CTAs running
GPGPU-Sim uArch: core:  3, cta: 4 initialized @(1313,0)
GPGPU-Sim uArch: core:  3, cta: 5 initialized @(1314,0)
GPGPU-Sim uArch: Shader 0 finished CTA #3 (1316,0), 5 CTAs running
GPGPU-Sim uArch: Shader 0 finished CTA #4 (1316,0), 4 CTAs running
GPGPU-Sim uArch: Shader 0 finished CTA #5 (1316,0), 3 CTAs running
GPGPU-Sim uArch: core:  0, cta: 3 initialized @(1317,0)
GPGPU-Sim uArch: core:  0, cta: 4 initialized @(1318,0)
GPGPU-Sim uArch: Shader 4 finished CTA #4 (1318,0), 5 CTAs running
GPGPU-Sim uArch: Shader 4 finished CTA #5 (1318,0), 4 CTAs running
GPGPU-Sim uArch: core:  4, cta: 4 initialized @(1319,0)
GPGPU-Sim uArch: core:  0, cta: 5 initialized @(1319,0)
GPGPU-Sim uArch: core:  4, cta: 5 initialized @(1320,0)
GPGPU-Sim uArch: Shader 5 finished CTA #3 (1322,0), 5 CTAs running
GPGPU-Sim uArch: Shader 5 finished CTA #4 (1322,0), 4 CTAs running
GPGPU-Sim uArch: Shader 5 finished CTA #5 (1322,0), 3 CTAs running
GPGPU-Sim uArch: Shader 9 finished CTA #0 (1322,0), 5 CTAs running
GPGPU-Sim uArch: Shader 9 finished CTA #1 (1322,0), 4 CTAs running
GPGPU-Sim uArch: Shader 9 finished CTA #2 (1322,0), 3 CTAs running
GPGPU-Sim uArch: core:  5, cta: 3 initialized @(1323,0)
GPGPU-Sim uArch: core:  9, cta: 0 initialized @(1323,0)
GPGPU-Sim uArch: core:  5, cta: 4 initialized @(1324,0)
GPGPU-Sim uArch: core:  9, cta: 1 initialized @(1324,0)
GPGPU-Sim uArch: core:  5, cta: 5 initialized @(1325,0)
GPGPU-Sim uArch: core:  9, cta: 2 initialized @(1325,0)
GPGPU-Sim uArch: Shader 10 finished CTA #0 (1326,0), 5 CTAs running
GPGPU-Sim uArch: Shader 10 finished CTA #1 (1326,0), 4 CTAs running
GPGPU-Sim uArch: Shader 10 finished CTA #2 (1326,0), 3 CTAs running
GPGPU-Sim uArch: Shader 10 finished CTA #3 (1326,0), 2 CTAs running
GPGPU-Sim uArch: core: 10, cta: 0 initialized @(1327,0)
GPGPU-Sim uArch: Shader 1 finished CTA #4 (1327,0), 5 CTAs running
GPGPU-Sim uArch: Shader 1 finished CTA #5 (1327,0), 4 CTAs running
GPGPU-Sim uArch: core:  1, cta: 4 initialized @(1328,0)
GPGPU-Sim uArch: core: 10, cta: 1 initialized @(1328,0)
GPGPU-Sim uArch: core:  1, cta: 5 initialized @(1329,0)
GPGPU-Sim uArch: core: 10, cta: 2 initialized @(1329,0)
GPGPU-Sim uArch: core: 10, cta: 3 initialized @(1330,0)
GPGPU-Sim uArch: Shader 12 finished CTA #0 (1330,0), 5 CTAs running
GPGPU-Sim uArch: Shader 12 finished CTA #1 (1330,0), 4 CTAs running
GPGPU-Sim uArch: Shader 12 finished CTA #2 (1330,0), 3 CTAs running
GPGPU-Sim uArch: core: 12, cta: 0 initialized @(1331,0)
GPGPU-Sim uArch: core: 12, cta: 1 initialized @(1332,0)
GPGPU-Sim uArch: core: 12, cta: 2 initialized @(1333,0)
GPGPU-Sim uArch: Shader 6 finished CTA #3 (1334,0), 5 CTAs running
GPGPU-Sim uArch: Shader 6 finished CTA #4 (1334,0), 4 CTAs running
GPGPU-Sim uArch: Shader 6 finished CTA #5 (1334,0), 3 CTAs running
GPGPU-Sim uArch: core:  6, cta: 3 initialized @(1335,0)
GPGPU-Sim uArch: core:  6, cta: 4 initialized @(1336,0)
GPGPU-Sim uArch: core:  6, cta: 5 initialized @(1337,0)
GPGPU-Sim uArch: Shader 7 finished CTA #3 (1340,0), 5 CTAs running
GPGPU-Sim uArch: Shader 7 finished CTA #4 (1340,0), 4 CTAs running
GPGPU-Sim uArch: Shader 7 finished CTA #5 (1340,0), 3 CTAs running
GPGPU-Sim uArch: core:  7, cta: 3 initialized @(1341,0)
GPGPU-Sim uArch: core:  7, cta: 4 initialized @(1342,0)
GPGPU-Sim uArch: Shader 13 finished CTA #0 (1342,0), 5 CTAs running
GPGPU-Sim uArch: Shader 13 finished CTA #1 (1342,0), 4 CTAs running
GPGPU-Sim uArch: Shader 13 finished CTA #2 (1342,0), 3 CTAs running
GPGPU-Sim uArch: core: 13, cta: 0 initialized @(1343,0)
GPGPU-Sim uArch: core:  7, cta: 5 initialized @(1343,0)
GPGPU-Sim uArch: core: 13, cta: 1 initialized @(1344,0)
GPGPU-Sim uArch: Shader 14 finished CTA #0 (1344,0), 5 CTAs running
GPGPU-Sim uArch: Shader 14 finished CTA #1 (1344,0), 4 CTAs running
GPGPU-Sim uArch: Shader 14 finished CTA #2 (1344,0), 3 CTAs running
GPGPU-Sim uArch: Shader 14 finished CTA #3 (1344,0), 2 CTAs running
GPGPU-Sim uArch: core: 14, cta: 0 initialized @(1345,0)
GPGPU-Sim uArch: core: 13, cta: 2 initialized @(1345,0)
GPGPU-Sim uArch: core: 14, cta: 1 initialized @(1346,0)
GPGPU-Sim uArch: Shader 8 finished CTA #3 (1346,0), 5 CTAs running
GPGPU-Sim uArch: Shader 8 finished CTA #4 (1346,0), 4 CTAs running
GPGPU-Sim uArch: Shader 8 finished CTA #5 (1346,0), 3 CTAs running
GPGPU-Sim uArch: core:  8, cta: 3 initialized @(1347,0)
GPGPU-Sim uArch: core: 14, cta: 2 initialized @(1347,0)
GPGPU-Sim uArch: core:  8, cta: 4 initialized @(1348,0)
GPGPU-Sim uArch: core: 14, cta: 3 initialized @(1348,0)
GPGPU-Sim uArch: core:  8, cta: 5 initialized @(1349,0)
GPGPU-Sim uArch: Shader 11 finished CTA #0 (1357,0), 5 CTAs running
GPGPU-Sim uArch: Shader 11 finished CTA #1 (1357,0), 4 CTAs running
GPGPU-Sim uArch: Shader 11 finished CTA #2 (1357,0), 3 CTAs running
GPGPU-Sim uArch: Shader 11 finished CTA #3 (1357,0), 2 CTAs running
GPGPU-Sim uArch: core: 11, cta: 0 initialized @(1358,0)
GPGPU-Sim uArch: Shader 9 finished CTA #3 (1358,0), 5 CTAs running
GPGPU-Sim uArch: Shader 9 finished CTA #4 (1358,0), 4 CTAs running
GPGPU-Sim uArch: Shader 9 finished CTA #5 (1358,0), 3 CTAs running
GPGPU-Sim uArch: core:  9, cta: 3 initialized @(1359,0)
GPGPU-Sim uArch: core: 11, cta: 1 initialized @(1359,0)
GPGPU-Sim uArch: core:  9, cta: 4 initialized @(1360,0)
GPGPU-Sim uArch: core: 11, cta: 2 initialized @(1360,0)
GPGPU-Sim uArch: Shader 10 finished CTA #4 (1360,0), 5 CTAs running
GPGPU-Sim uArch: Shader 10 finished CTA #5 (1360,0), 4 CTAs running
GPGPU-Sim uArch: core:  9, cta: 5 initialized @(1361,0)
GPGPU-Sim uArch: core: 10, cta: 4 initialized @(1361,0)
GPGPU-Sim uArch: core: 11, cta: 3 initialized @(1361,0)
GPGPU-Sim uArch: core: 10, cta: 5 initialized @(1362,0)
GPGPU-Sim uArch: Shader 12 finished CTA #3 (1364,0), 5 CTAs running
GPGPU-Sim uArch: Shader 12 finished CTA #4 (1364,0), 4 CTAs running
GPGPU-Sim uArch: Shader 12 finished CTA #5 (1364,0), 3 CTAs running
GPGPU-Sim uArch: core: 12, cta: 3 initialized @(1365,0)
GPGPU-Sim uArch: core: 12, cta: 4 initialized @(1366,0)
GPGPU-Sim uArch: core: 12, cta: 5 initialized @(1367,0)
GPGPU-Sim uArch: Shader 13 finished CTA #3 (1376,0), 5 CTAs running
GPGPU-Sim uArch: Shader 13 finished CTA #4 (1376,0), 4 CTAs running
GPGPU-Sim uArch: Shader 13 finished CTA #5 (1376,0), 3 CTAs running
GPGPU-Sim uArch: core: 13, cta: 3 initialized @(1377,0)
GPGPU-Sim uArch: core: 13, cta: 4 initialized @(1378,0)
GPGPU-Sim uArch: Shader 14 finished CTA #4 (1378,0), 5 CTAs running
GPGPU-Sim uArch: Shader 14 finished CTA #5 (1378,0), 4 CTAs running
GPGPU-Sim uArch: core: 14, cta: 4 initialized @(1379,0)
GPGPU-Sim uArch: core: 13, cta: 5 initialized @(1379,0)
GPGPU-Sim uArch: core: 14, cta: 5 initialized @(1380,0)
GPGPU-Sim PTX: 400000 instructions simulated : ctaid=(134,0,0) tid=(213,0,0)
GPGPU-Sim uArch: Shader 11 finished CTA #4 (1390,0), 5 CTAs running
GPGPU-Sim uArch: Shader 11 finished CTA #5 (1390,0), 4 CTAs running
GPGPU-Sim uArch: core: 11, cta: 4 initialized @(1391,0)
GPGPU-Sim uArch: core: 11, cta: 5 initialized @(1392,0)
GPGPU-Sim PTX: 500000 instructions simulated : ctaid=(102,0,0) tid=(114,0,0)
GPGPU-Sim uArch: cycles simulated: 1500  inst.: 461995 (ipc=308.0) sim_rate=153998 (inst/sec) elapsed = 0:0:00:03 / Fri Mar  4 17:16:47 2016
GPGPU-Sim PTX: 600000 instructions simulated : ctaid=(145,0,0) tid=(237,0,0)
GPGPU-Sim uArch: Shader 2 finished CTA #0 (1766,0), 5 CTAs running
GPGPU-Sim uArch: core:  2, cta: 0 initialized @(1767,0)
GPGPU-Sim uArch: Shader 1 finished CTA #1 (1767,0), 5 CTAs running
GPGPU-Sim uArch: core:  1, cta: 1 initialized @(1768,0)
GPGPU-Sim uArch: Shader 3 finished CTA #0 (1773,0), 5 CTAs running
GPGPU-Sim uArch: core:  3, cta: 0 initialized @(1774,0)
GPGPU-Sim uArch: Shader 2 finished CTA #1 (1790,0), 5 CTAs running
GPGPU-Sim uArch: Shader 5 finished CTA #0 (1790,0), 5 CTAs running
GPGPU-Sim uArch: core:  5, cta: 0 initialized @(1791,0)
GPGPU-Sim uArch: core:  2, cta: 1 initialized @(1791,0)
GPGPU-Sim uArch: Shader 4 finished CTA #1 (1791,0), 5 CTAs running
GPGPU-Sim uArch: core:  4, cta: 1 initialized @(1792,0)
GPGPU-Sim uArch: Shader 3 finished CTA #1 (1805,0), 5 CTAs running
GPGPU-Sim uArch: core:  3, cta: 1 initialized @(1806,0)
GPGPU-Sim uArch: Shader 0 finished CTA #0 (1812,0), 5 CTAs running
GPGPU-Sim uArch: Shader 0 finished CTA #1 (1812,0), 4 CTAs running
GPGPU-Sim uArch: core:  0, cta: 0 initialized @(1813,0)
GPGPU-Sim uArch: Shader 2 finished CTA #2 (1813,0), 5 CTAs running
GPGPU-Sim uArch: core:  2, cta: 2 initialized @(1814,0)
GPGPU-Sim uArch: core:  0, cta: 1 initialized @(1814,0)
GPGPU-Sim uArch: Shader 5 finished CTA #1 (1814,0), 5 CTAs running
GPGPU-Sim uArch: core:  5, cta: 1 initialized @(1815,0)
GPGPU-Sim uArch: Shader 4 finished CTA #2 (1817,0), 5 CTAs running
GPGPU-Sim uArch: core:  4, cta: 2 initialized @(1818,0)
GPGPU-Sim uArch: Shader 1 finished CTA #2 (1818,0), 5 CTAs running
GPGPU-Sim uArch: Shader 1 finished CTA #3 (1818,0), 4 CTAs running
GPGPU-Sim uArch: core:  1, cta: 2 initialized @(1819,0)
GPGPU-Sim uArch: core:  1, cta: 3 initialized @(1820,0)
GPGPU-Sim uArch: Shader 8 finished CTA #0 (1825,0), 5 CTAs running
GPGPU-Sim uArch: core:  8, cta: 0 initialized @(1826,0)
GPGPU-Sim uArch: Shader 6 finished CTA #1 (1827,0), 5 CTAs running
GPGPU-Sim uArch: core:  6, cta: 1 initialized @(1828,0)
GPGPU-Sim uArch: Shader 7 finished CTA #1 (1830,0), 5 CTAs running
GPGPU-Sim uArch: core:  7, cta: 1 initialized @(1831,0)
GPGPU-Sim uArch: Shader 0 finished CTA #2 (1831,0), 5 CTAs running
GPGPU-Sim uArch: core:  0, cta: 2 initialized @(1832,0)
GPGPU-Sim uArch: Shader 10 finished CTA #0 (1833,0), 5 CTAs running
GPGPU-Sim uArch: core: 10, cta: 0 initialized @(1834,0)
GPGPU-Sim uArch: Shader 5 finished CTA #2 (1834,0), 5 CTAs running
GPGPU-Sim uArch: core:  5, cta: 2 initialized @(1835,0)
GPGPU-Sim uArch: Shader 6 finished CTA #0 (1835,0), 5 CTAs running
GPGPU-Sim uArch: core:  6, cta: 0 initialized @(1836,0)
GPGPU-Sim uArch: Shader 3 finished CTA #2 (1836,0), 5 CTAs running
GPGPU-Sim uArch: Shader 3 finished CTA #3 (1836,0), 4 CTAs running
GPGPU-Sim uArch: core:  3, cta: 2 initialized @(1837,0)
GPGPU-Sim uArch: core:  3, cta: 3 initialized @(1838,0)
GPGPU-Sim uArch: Shader 9 finished CTA #0 (1840,0), 5 CTAs running
GPGPU-Sim uArch: Shader 12 finished CTA #0 (1840,0), 5 CTAs running
GPGPU-Sim uArch: core:  9, cta: 0 initialized @(1841,0)
GPGPU-Sim uArch: core: 12, cta: 0 initialized @(1841,0)
GPGPU-Sim uArch: Shader 6 finished CTA #2 (1843,0), 5 CTAs running
GPGPU-Sim uArch: core:  6, cta: 2 initialized @(1844,0)
GPGPU-Sim uArch: Shader 8 finished CTA #1 (1849,0), 5 CTAs running
GPGPU-Sim uArch: core:  8, cta: 1 initialized @(1850,0)
GPGPU-Sim uArch: Shader 1 finished CTA #4 (1850,0), 5 CTAs running
GPGPU-Sim uArch: core:  1, cta: 4 initialized @(1851,0)
GPGPU-Sim uArch: Shader 7 finished CTA #2 (1854,0), 5 CTAs running
GPGPU-Sim uArch: core:  7, cta: 2 initialized @(1855,0)
GPGPU-Sim uArch: Shader 9 finished CTA #1 (1856,0), 5 CTAs running
GPGPU-Sim uArch: core:  9, cta: 1 initialized @(1857,0)
GPGPU-Sim uArch: Shader 10 finished CTA #1 (1858,0), 5 CTAs running
GPGPU-Sim uArch: core: 10, cta: 1 initialized @(1859,0)
GPGPU-Sim uArch: Shader 4 finished CTA #0 (1862,0), 5 CTAs running
GPGPU-Sim uArch: Shader 7 finished CTA #0 (1862,0), 5 CTAs running
GPGPU-Sim uArch: Shader 14 finished CTA #0 (1862,0), 5 CTAs running
GPGPU-Sim uArch: core: 14, cta: 0 initialized @(1863,0)
GPGPU-Sim uArch: core:  4, cta: 0 initialized @(1863,0)
GPGPU-Sim uArch: core:  7, cta: 0 initialized @(1863,0)
GPGPU-Sim uArch: Shader 13 finished CTA #2 (1869,0), 5 CTAs running
GPGPU-Sim uArch: core: 13, cta: 2 initialized @(1870,0)
GPGPU-Sim uArch: Shader 8 finished CTA #2 (1871,0), 5 CTAs running
GPGPU-Sim uArch: core:  8, cta: 2 initialized @(1872,0)
GPGPU-Sim uArch: Shader 2 finished CTA #3 (1876,0), 5 CTAs running
GPGPU-Sim uArch: core:  2, cta: 3 initialized @(1877,0)
GPGPU-Sim uArch: Shader 4 finished CTA #3 (1878,0), 5 CTAs running
GPGPU-Sim uArch: core:  4, cta: 3 initialized @(1879,0)
GPGPU-Sim uArch: Shader 12 finished CTA #1 (1882,0), 5 CTAs running
GPGPU-Sim uArch: core: 12, cta: 1 initialized @(1883,0)
GPGPU-Sim uArch: Shader 13 finished CTA #1 (1886,0), 5 CTAs running
GPGPU-Sim uArch: core: 13, cta: 1 initialized @(1887,0)
GPGPU-Sim uArch: Shader 10 finished CTA #2 (1889,0), 5 CTAs running
GPGPU-Sim uArch: core: 10, cta: 2 initialized @(1890,0)
GPGPU-Sim uArch: Shader 0 finished CTA #3 (1891,0), 5 CTAs running
GPGPU-Sim uArch: core:  0, cta: 3 initialized @(1892,0)
GPGPU-Sim uArch: Shader 11 finished CTA #2 (1892,0), 5 CTAs running
GPGPU-Sim uArch: core: 11, cta: 2 initialized @(1893,0)
GPGPU-Sim uArch: Shader 14 finished CTA #2 (1893,0), 5 CTAs running
GPGPU-Sim uArch: core: 14, cta: 2 initialized @(1894,0)
GPGPU-Sim PTX: 700000 instructions simulated : ctaid=(128,0,0) tid=(139,0,0)
GPGPU-Sim uArch: Shader 12 finished CTA #2 (1894,0), 5 CTAs running
GPGPU-Sim uArch: core: 12, cta: 2 initialized @(1895,0)
GPGPU-Sim uArch: Shader 5 finished CTA #3 (1900,0), 5 CTAs running
GPGPU-Sim uArch: Shader 11 finished CTA #0 (1900,0), 5 CTAs running
GPGPU-Sim uArch: core:  5, cta: 3 initialized @(1901,0)
GPGPU-Sim uArch: core: 11, cta: 0 initialized @(1901,0)
GPGPU-Sim uArch: Shader 14 finished CTA #1 (1908,0), 5 CTAs running
GPGPU-Sim uArch: core: 14, cta: 1 initialized @(1909,0)
GPGPU-Sim uArch: Shader 9 finished CTA #2 (1912,0), 5 CTAs running
GPGPU-Sim uArch: core:  9, cta: 2 initialized @(1913,0)
GPGPU-Sim uArch: Shader 14 finished CTA #3 (1916,0), 5 CTAs running
GPGPU-Sim uArch: core: 14, cta: 3 initialized @(1917,0)
GPGPU-Sim uArch: Shader 2 finished CTA #4 (1918,0), 5 CTAs running
GPGPU-Sim uArch: Shader 4 finished CTA #4 (1918,0), 5 CTAs running
GPGPU-Sim uArch: Shader 7 finished CTA #3 (1918,0), 5 CTAs running
GPGPU-Sim uArch: core:  2, cta: 4 initialized @(1919,0)
GPGPU-Sim uArch: core:  4, cta: 4 initialized @(1919,0)
GPGPU-Sim uArch: core:  7, cta: 3 initialized @(1919,0)
GPGPU-Sim uArch: Shader 10 finished CTA #3 (1922,0), 5 CTAs running
GPGPU-Sim uArch: core: 10, cta: 3 initialized @(1923,0)
GPGPU-Sim uArch: Shader 5 finished CTA #4 (1933,0), 5 CTAs running
GPGPU-Sim uArch: core:  5, cta: 4 initialized @(1934,0)
GPGPU-Sim uArch: Shader 8 finished CTA #3 (1935,0), 5 CTAs running
GPGPU-Sim uArch: core:  8, cta: 3 initialized @(1936,0)
GPGPU-Sim uArch: Shader 3 finished CTA #4 (1937,0), 5 CTAs running
GPGPU-Sim uArch: core:  3, cta: 4 initialized @(1938,0)
GPGPU-Sim uArch: Shader 0 finished CTA #4 (1938,0), 5 CTAs running
GPGPU-Sim uArch: core:  0, cta: 4 initialized @(1939,0)
GPGPU-Sim uArch: Shader 11 finished CTA #1 (1940,0), 5 CTAs running
GPGPU-Sim uArch: core: 11, cta: 1 initialized @(1941,0)
GPGPU-Sim uArch: Shader 13 finished CTA #0 (1941,0), 5 CTAs running
GPGPU-Sim uArch: core: 13, cta: 0 initialized @(1942,0)
GPGPU-Sim uArch: Shader 6 finished CTA #3 (1947,0), 5 CTAs running
GPGPU-Sim uArch: Shader 6 finished CTA #4 (1947,0), 4 CTAs running
GPGPU-Sim uArch: core:  6, cta: 3 initialized @(1948,0)
GPGPU-Sim uArch: Shader 9 finished CTA #3 (1948,0), 5 CTAs running
GPGPU-Sim uArch: Shader 11 finished CTA #3 (1948,0), 5 CTAs running
GPGPU-Sim uArch: core:  9, cta: 3 initialized @(1949,0)
GPGPU-Sim uArch: core: 11, cta: 3 initialized @(1949,0)
GPGPU-Sim uArch: core:  6, cta: 4 initialized @(1949,0)
GPGPU-Sim uArch: Shader 13 finished CTA #3 (1957,0), 5 CTAs running
GPGPU-Sim uArch: core: 13, cta: 3 initialized @(1958,0)
GPGPU-Sim uArch: Shader 10 finished CTA #4 (1959,0), 5 CTAs running
GPGPU-Sim uArch: core: 10, cta: 4 initialized @(1960,0)
GPGPU-Sim uArch: Shader 2 finished CTA #5 (1964,0), 5 CTAs running
GPGPU-Sim uArch: core:  2, cta: 5 initialized @(1965,0)
GPGPU-Sim uArch: Shader 7 finished CTA #4 (1965,0), 5 CTAs running
GPGPU-Sim uArch: core:  7, cta: 4 initialized @(1966,0)
GPGPU-Sim uArch: Shader 1 finished CTA #5 (1971,0), 5 CTAs running
GPGPU-Sim uArch: core:  1, cta: 5 initialized @(1972,0)
GPGPU-Sim uArch: Shader 3 finished CTA #5 (1981,0), 5 CTAs running
GPGPU-Sim uArch: Shader 8 finished CTA #4 (1981,0), 5 CTAs running
GPGPU-Sim uArch: core:  3, cta: 5 initialized @(1982,0)
GPGPU-Sim uArch: core:  8, cta: 4 initialized @(1982,0)
GPGPU-Sim uArch: Shader 0 finished CTA #5 (1986,0), 5 CTAs running
GPGPU-Sim uArch: core:  0, cta: 5 initialized @(1987,0)
GPGPU-Sim uArch: Shader 11 finished CTA #4 (1988,0), 5 CTAs running
GPGPU-Sim uArch: core: 11, cta: 4 initialized @(1989,0)
GPGPU-Sim uArch: Shader 12 finished CTA #3 (1990,0), 5 CTAs running
GPGPU-Sim uArch: Shader 12 finished CTA #4 (1990,0), 4 CTAs running
GPGPU-Sim uArch: core: 12, cta: 3 initialized @(1991,0)
GPGPU-Sim uArch: core: 12, cta: 4 initialized @(1992,0)
GPGPU-Sim uArch: Shader 9 finished CTA #4 (1996,0), 5 CTAs running
GPGPU-Sim uArch: core:  9, cta: 4 initialized @(1997,0)
GPGPU-Sim uArch: Shader 14 finished CTA #4 (2001,0), 5 CTAs running
GPGPU-Sim uArch: core: 14, cta: 4 initialized @(2002,0)
GPGPU-Sim uArch: Shader 13 finished CTA #4 (2004,0), 5 CTAs running
GPGPU-Sim PTX: 800000 instructions simulated : ctaid=(203,0,0) tid=(202,0,0)
GPGPU-Sim uArch: Shader 4 finished CTA #5 (2011,0), 5 CTAs running
GPGPU-Sim uArch: Shader 7 finished CTA #5 (2012,0), 5 CTAs running
GPGPU-Sim uArch: Shader 5 finished CTA #5 (2029,0), 5 CTAs running
GPGPU-Sim uArch: Shader 8 finished CTA #5 (2029,0), 5 CTAs running
GPGPU-Sim uArch: Shader 6 finished CTA #5 (2036,0), 5 CTAs running
GPGPU-Sim uArch: Shader 12 finished CTA #5 (2037,0), 5 CTAs running
GPGPU-Sim uArch: Shader 9 finished CTA #5 (2044,0), 5 CTAs running
GPGPU-Sim uArch: Shader 13 finished CTA #5 (2044,0), 4 CTAs running
GPGPU-Sim uArch: Shader 14 finished CTA #5 (2049,0), 5 CTAs running
GPGPU-Sim uArch: Shader 10 finished CTA #5 (2054,0), 5 CTAs running
GPGPU-Sim uArch: Shader 11 finished CTA #5 (2080,0), 5 CTAs running
GPGPU-Sim PTX: 900000 instructions simulated : ctaid=(226,0,0) tid=(199,0,0)
GPGPU-Sim uArch: Shader 1 finished CTA #1 (2191,0), 5 CTAs running
GPGPU-Sim uArch: Shader 2 finished CTA #0 (2233,0), 5 CTAs running
GPGPU-Sim uArch: Shader 5 finished CTA #0 (2247,0), 4 CTAs running
GPGPU-Sim uArch: Shader 3 finished CTA #0 (2252,0), 5 CTAs running
GPGPU-Sim uArch: Shader 9 finished CTA #0 (2271,0), 4 CTAs running
GPGPU-Sim uArch: Shader 12 finished CTA #0 (2273,0), 4 CTAs running
GPGPU-Sim uArch: Shader 1 finished CTA #2 (2284,0), 4 CTAs running
GPGPU-Sim uArch: Shader 4 finished CTA #1 (2289,0), 4 CTAs running
GPGPU-Sim uArch: Shader 8 finished CTA #0 (2295,0), 4 CTAs running
GPGPU-Sim uArch: Shader 0 finished CTA #0 (2296,0), 5 CTAs running
GPGPU-Sim uArch: Shader 1 finished CTA #3 (2299,0), 3 CTAs running
GPGPU-Sim uArch: Shader 5 finished CTA #1 (2305,0), 3 CTAs running
GPGPU-Sim uArch: Shader 0 finished CTA #1 (2311,0), 4 CTAs running
GPGPU-Sim uArch: Shader 6 finished CTA #1 (2312,0), 4 CTAs running
GPGPU-Sim uArch: Shader 2 finished CTA #1 (2319,0), 4 CTAs running
GPGPU-Sim uArch: Shader 10 finished CTA #0 (2321,0), 4 CTAs running
GPGPU-Sim uArch: Shader 4 finished CTA #2 (2333,0), 3 CTAs running
GPGPU-Sim uArch: Shader 2 finished CTA #2 (2334,0), 3 CTAs running
GPGPU-Sim uArch: Shader 13 finished CTA #2 (2334,0), 3 CTAs running
GPGPU-Sim uArch: Shader 3 finished CTA #1 (2337,0), 4 CTAs running
GPGPU-Sim uArch: Shader 7 finished CTA #1 (2345,0), 4 CTAs running
GPGPU-Sim uArch: Shader 8 finished CTA #1 (2345,0), 3 CTAs running
GPGPU-Sim uArch: Shader 3 finished CTA #2 (2352,0), 3 CTAs running
GPGPU-Sim uArch: Shader 6 finished CTA #0 (2353,0), 3 CTAs running
GPGPU-Sim uArch: Shader 1 finished CTA #4 (2354,0), 2 CTAs running
GPGPU-Sim uArch: Shader 0 finished CTA #2 (2355,0), 3 CTAs running
GPGPU-Sim uArch: Shader 14 finished CTA #0 (2364,0), 4 CTAs running
GPGPU-Sim uArch: Shader 9 finished CTA #1 (2365,0), 3 CTAs running
GPGPU-Sim uArch: Shader 6 finished CTA #2 (2368,0), 2 CTAs running
GPGPU-Sim uArch: Shader 10 finished CTA #1 (2369,0), 3 CTAs running
GPGPU-Sim uArch: Shader 7 finished CTA #2 (2371,0), 3 CTAs running
GPGPU-Sim uArch: Shader 5 finished CTA #2 (2374,0), 2 CTAs running
GPGPU-Sim uArch: Shader 8 finished CTA #2 (2384,0), 2 CTAs running
GPGPU-Sim uArch: Shader 3 finished CTA #3 (2389,0), 2 CTAs running
GPGPU-Sim uArch: Shader 12 finished CTA #1 (2391,0), 3 CTAs running
GPGPU-Sim uArch: Shader 13 finished CTA #1 (2392,0), 2 CTAs running
GPGPU-Sim uArch: Shader 7 finished CTA #0 (2401,0), 2 CTAs running
GPGPU-Sim uArch: Shader 4 finished CTA #0 (2402,0), 2 CTAs running
GPGPU-Sim uArch: Shader 12 finished CTA #2 (2404,0), 2 CTAs running
GPGPU-Sim uArch: Shader 2 finished CTA #3 (2405,0), 2 CTAs running
GPGPU-Sim uArch: Shader 10 finished CTA #2 (2408,0), 2 CTAs running
GPGPU-Sim uArch: Shader 14 finished CTA #2 (2409,0), 3 CTAs running
GPGPU-Sim uArch: Shader 5 finished CTA #3 (2411,0), 1 CTAs running
GPGPU-Sim uArch: Shader 1 finished CTA #5 (2413,0), 1 CTAs running
GPGPU-Sim uArch: Shader 4 finished CTA #3 (2416,0), 1 CTAs running
GPGPU-Sim uArch: Shader 11 finished CTA #2 (2421,0), 4 CTAs running
GPGPU-Sim uArch: Shader 9 finished CTA #2 (2427,0), 2 CTAs running
GPGPU-Sim uArch: Shader 4 finished CTA #4 (2429,0), 0 CTAs running
GPGPU-Sim uArch: Shader 4 empty (release kernel 1 '_Z6KernelP4NodePiPbS2_S1_S2_i').
GPGPU-Sim uArch: Shader 11 finished CTA #0 (2430,0), 3 CTAs running
GPGPU-Sim uArch: Shader 0 finished CTA #3 (2431,0), 2 CTAs running
GPGPU-Sim uArch: Shader 2 finished CTA #4 (2436,0), 1 CTAs running
GPGPU-Sim uArch: Shader 7 finished CTA #3 (2436,0), 1 CTAs running
GPGPU-Sim uArch: Shader 8 finished CTA #3 (2439,0), 1 CTAs running
GPGPU-Sim uArch: Shader 13 finished CTA #0 (2441,0), 1 CTAs running
GPGPU-Sim uArch: Shader 6 finished CTA #3 (2443,0), 1 CTAs running
GPGPU-Sim uArch: Shader 3 finished CTA #4 (2445,0), 1 CTAs running
GPGPU-Sim uArch: Shader 5 finished CTA #4 (2445,0), 0 CTAs running
GPGPU-Sim uArch: Shader 5 empty (release kernel 1 '_Z6KernelP4NodePiPbS2_S1_S2_i').
GPGPU-Sim uArch: Shader 6 finished CTA #4 (2455,0), 0 CTAs running
GPGPU-Sim uArch: Shader 6 empty (release kernel 1 '_Z6KernelP4NodePiPbS2_S1_S2_i').
GPGPU-Sim uArch: Shader 13 finished CTA #3 (2456,0), 0 CTAs running
GPGPU-Sim uArch: Shader 13 empty (release kernel 1 '_Z6KernelP4NodePiPbS2_S1_S2_i').
GPGPU-Sim uArch: Shader 10 finished CTA #3 (2459,0), 1 CTAs running
GPGPU-Sim uArch: Shader 14 finished CTA #1 (2459,0), 2 CTAs running
GPGPU-Sim uArch: Shader 2 finished CTA #5 (2462,0), 0 CTAs running
GPGPU-Sim uArch: Shader 2 empty (release kernel 1 '_Z6KernelP4NodePiPbS2_S1_S2_i').
GPGPU-Sim uArch: Shader 8 finished CTA #4 (2464,0), 0 CTAs running
GPGPU-Sim uArch: Shader 8 empty (release kernel 1 '_Z6KernelP4NodePiPbS2_S1_S2_i').
GPGPU-Sim uArch: Shader 0 finished CTA #4 (2466,0), 1 CTAs running
GPGPU-Sim uArch: Shader 14 finished CTA #3 (2466,0), 1 CTAs running
GPGPU-Sim uArch: Shader 9 finished CTA #3 (2471,0), 1 CTAs running
GPGPU-Sim uArch: Shader 3 finished CTA #5 (2474,0), 0 CTAs running
GPGPU-Sim uArch: Shader 3 empty (release kernel 1 '_Z6KernelP4NodePiPbS2_S1_S2_i').
GPGPU-Sim uArch: Shader 10 finished CTA #4 (2474,0), 0 CTAs running
GPGPU-Sim uArch: Shader 10 empty (release kernel 1 '_Z6KernelP4NodePiPbS2_S1_S2_i').
GPGPU-Sim uArch: Shader 11 finished CTA #1 (2475,0), 2 CTAs running
GPGPU-Sim uArch: Shader 7 finished CTA #4 (2477,0), 0 CTAs running
GPGPU-Sim uArch: Shader 7 empty (release kernel 1 '_Z6KernelP4NodePiPbS2_S1_S2_i').
GPGPU-Sim uArch: Shader 12 finished CTA #3 (2483,0), 1 CTAs running
GPGPU-Sim uArch: Shader 9 finished CTA #4 (2486,0), 0 CTAs running
GPGPU-Sim uArch: Shader 9 empty (release kernel 1 '_Z6KernelP4NodePiPbS2_S1_S2_i').
GPGPU-Sim uArch: Shader 0 finished CTA #5 (2487,0), 0 CTAs running
GPGPU-Sim uArch: Shader 0 empty (release kernel 1 '_Z6KernelP4NodePiPbS2_S1_S2_i').
GPGPU-Sim uArch: Shader 11 finished CTA #3 (2490,0), 1 CTAs running
GPGPU-Sim uArch: Shader 12 finished CTA #4 (2496,0), 0 CTAs running
GPGPU-Sim uArch: Shader 12 empty (release kernel 1 '_Z6KernelP4NodePiPbS2_S1_S2_i').
GPGPU-Sim uArch: Shader 14 finished CTA #4 (2496,0), 0 CTAs running
GPGPU-Sim uArch: Shader 14 empty (release kernel 1 '_Z6KernelP4NodePiPbS2_S1_S2_i').
GPGPU-Sim uArch: cycles simulated: 2500  inst.: 917178 (ipc=366.9) sim_rate=229294 (inst/sec) elapsed = 0:0:00:04 / Fri Mar  4 17:16:48 2016
GPGPU-Sim uArch: Shader 11 finished CTA #4 (2512,0), 0 CTAs running
GPGPU-Sim uArch: Shader 11 empty (release kernel 1 '_Z6KernelP4NodePiPbS2_S1_S2_i').
GPGPU-Sim uArch: Shader 1 finished CTA #0 (5791,0), 0 CTAs running
GPGPU-Sim uArch: Shader 1 empty (release kernel 1 '_Z6KernelP4NodePiPbS2_S1_S2_i').
GPGPU-Sim uArch: GPU detected kernel '_Z6KernelP4NodePiPbS2_S1_S2_i' finished on shader 1.
kernel_name = _Z6KernelP4NodePiPbS2_S1_S2_i 
kernel_launch_uid = 1 
gpu_sim_cycle = 5792
gpu_sim_insn = 917736
gpu_ipc =     158.4489
gpu_tot_sim_cycle = 5792
gpu_tot_sim_insn = 917736
gpu_tot_ipc =     158.4489
gpu_tot_issued_cta = 256
gpu_stall_dramfull = 292
gpu_stall_icnt2sh    = 236
gpu_total_sim_rate=229434

========= Core cache stats =========
L1I_cache:
	L1I_total_cache_accesses = 18559
	L1I_total_cache_misses = 962
	L1I_total_cache_miss_rate = 0.0518
	L1I_total_cache_pending_hits = 0
	L1I_total_cache_reservation_fails = 6741
L1D_cache:
	L1D_cache_core[0]: Access = 144, Miss = 18, Miss_rate = 0.125, Pending_hits = 126, Reservation_fails = 0
	L1D_cache_core[1]: Access = 196, Miss = 52, Miss_rate = 0.265, Pending_hits = 112, Reservation_fails = 0
	L1D_cache_core[2]: Access = 144, Miss = 18, Miss_rate = 0.125, Pending_hits = 126, Reservation_fails = 0
	L1D_cache_core[3]: Access = 144, Miss = 18, Miss_rate = 0.125, Pending_hits = 126, Reservation_fails = 0
	L1D_cache_core[4]: Access = 136, Miss = 17, Miss_rate = 0.125, Pending_hits = 119, Reservation_fails = 0
	L1D_cache_core[5]: Access = 136, Miss = 17, Miss_rate = 0.125, Pending_hits = 119, Reservation_fails = 0
	L1D_cache_core[6]: Access = 136, Miss = 17, Miss_rate = 0.125, Pending_hits = 119, Reservation_fails = 0
	L1D_cache_core[7]: Access = 136, Miss = 17, Miss_rate = 0.125, Pending_hits = 119, Reservation_fails = 0
	L1D_cache_core[8]: Access = 136, Miss = 17, Miss_rate = 0.125, Pending_hits = 119, Reservation_fails = 0
	L1D_cache_core[9]: Access = 136, Miss = 17, Miss_rate = 0.125, Pending_hits = 119, Reservation_fails = 0
	L1D_cache_core[10]: Access = 136, Miss = 17, Miss_rate = 0.125, Pending_hits = 119, Reservation_fails = 0
	L1D_cache_core[11]: Access = 136, Miss = 17, Miss_rate = 0.125, Pending_hits = 119, Reservation_fails = 0
	L1D_cache_core[12]: Access = 136, Miss = 17, Miss_rate = 0.125, Pending_hits = 119, Reservation_fails = 0
	L1D_cache_core[13]: Access = 128, Miss = 16, Miss_rate = 0.125, Pending_hits = 112, Reservation_fails = 0
	L1D_cache_core[14]: Access = 136, Miss = 17, Miss_rate = 0.125, Pending_hits = 119, Reservation_fails = 0
	L1D_total_cache_accesses = 2116
	L1D_total_cache_misses = 292
	L1D_total_cache_miss_rate = 0.1380
	L1D_total_cache_pending_hits = 1792
	L1D_total_cache_reservation_fails = 0
	L1D_cache_data_port_util = 0.001
	L1D_cache_fill_port_util = 0.007
L1C_cache:
	L1C_total_cache_accesses = 4115
	L1C_total_cache_misses = 480
	L1C_total_cache_miss_rate = 0.1166
	L1C_total_cache_pending_hits = 0
	L1C_total_cache_reservation_fails = 3172
L1T_cache:
	L1T_total_cache_accesses = 0
	L1T_total_cache_misses = 0
	L1T_total_cache_pending_hits = 0
	L1T_total_cache_reservation_fails = 0

Total_core_cache_stats:
	Total_core_cache_stats_breakdown[GLOBAL_ACC_R][HIT] = 31
	Total_core_cache_stats_breakdown[GLOBAL_ACC_R][HIT_RESERVED] = 1792
	Total_core_cache_stats_breakdown[GLOBAL_ACC_R][MISS] = 267
	Total_core_cache_stats_breakdown[CONST_ACC_R][HIT] = 3635
	Total_core_cache_stats_breakdown[CONST_ACC_R][MISS] = 480
	Total_core_cache_stats_breakdown[CONST_ACC_R][RESERVATION_FAIL] = 3172
	Total_core_cache_stats_breakdown[GLOBAL_ACC_W][HIT] = 1
	Total_core_cache_stats_breakdown[GLOBAL_ACC_W][MISS] = 25
	Total_core_cache_stats_breakdown[INST_ACC_R][HIT] = 17597
	Total_core_cache_stats_breakdown[INST_ACC_R][MISS] = 962
	Total_core_cache_stats_breakdown[INST_ACC_R][RESERVATION_FAIL] = 6741
Shader 0 warp_id issue ditsribution:
warp_id:
0, 1, 2, 3, 4, 5, 6, 7, 8, 9, 10, 11, 12, 13, 14, 15, 16, 17, 18, 19, 20, 21, 22, 23, 24, 25, 26, 27, 28, 29, 30, 31, 32, 33, 34, 35, 36, 37, 38, 39, 40, 41, 42, 43, 44, 45, 46, 47, 
distro:
45, 45, 45, 45, 45, 45, 45, 45, 45, 45, 45, 45, 45, 45, 45, 45, 45, 45, 45, 45, 45, 45, 45, 45, 45, 45, 45, 45, 45, 45, 45, 45, 45, 45, 45, 45, 45, 45, 45, 45, 45, 45, 45, 45, 45, 45, 45, 45, 
gpgpu_n_tot_thrd_icount = 990816
gpgpu_n_tot_w_icount = 30963
gpgpu_n_stall_shd_mem = 3172
gpgpu_n_mem_read_local = 0
gpgpu_n_mem_write_local = 0
gpgpu_n_mem_read_global = 267
gpgpu_n_mem_write_global = 26
gpgpu_n_mem_texture = 0
gpgpu_n_mem_const = 15
gpgpu_n_load_insn  = 65578
gpgpu_n_store_insn = 26
gpgpu_n_shmem_insn = 0
gpgpu_n_tex_insn = 0
gpgpu_n_const_mem_insn = 0
gpgpu_n_param_mem_insn = 131091
gpgpu_n_shmem_bkconflict = 0
gpgpu_n_cache_bkconflict = 0
gpgpu_n_intrawarp_mshr_merge = 0
gpgpu_n_cmem_portconflict = 3172
gpgpu_stall_shd_mem[c_mem][bk_conf] = 3172
gpgpu_stall_shd_mem[c_mem][mshr_rc] = 0
gpgpu_stall_shd_mem[c_mem][icnt_rc] = 0
gpgpu_stall_shd_mem[c_mem][data_port_stall] = 0
gpgpu_stall_shd_mem[t_mem][mshr_rc] = 0
gpgpu_stall_shd_mem[t_mem][icnt_rc] = 0
gpgpu_stall_shd_mem[t_mem][data_port_stall] = 0
gpgpu_stall_shd_mem[s_mem][bk_conf] = 0
gpgpu_stall_shd_mem[gl_mem][bk_conf] = 0
gpgpu_stall_shd_mem[gl_mem][coal_stall] = 0
gpgpu_stall_shd_mem[gl_mem][data_port_stall] = 0
gpgpu_stall_shd_mem[g_mem_ld][mshr_rc] = 0
gpgpu_stall_shd_mem[g_mem_ld][icnt_rc] = 0
gpgpu_stall_shd_mem[g_mem_ld][wb_icnt_rc] = 0
gpgpu_stall_shd_mem[g_mem_ld][wb_rsrv_fail] = 0
gpgpu_stall_shd_mem[g_mem_st][mshr_rc] = 0
gpgpu_stall_shd_mem[g_mem_st][icnt_rc] = 0
gpgpu_stall_shd_mem[g_mem_st][wb_icnt_rc] = 0
gpgpu_stall_shd_mem[g_mem_st][wb_rsrv_fail] = 0
gpgpu_stall_shd_mem[l_mem_ld][mshr_rc] = 0
gpgpu_stall_shd_mem[l_mem_ld][icnt_rc] = 0
gpgpu_stall_shd_mem[l_mem_ld][wb_icnt_rc] = 0
gpgpu_stall_shd_mem[l_mem_ld][wb_rsrv_fail] = 0
gpgpu_stall_shd_mem[l_mem_st][mshr_rc] = 0
gpgpu_stall_shd_mem[l_mem_st][icnt_rc] = 0
gpgpu_stall_shd_mem[l_mem_ld][wb_icnt_rc] = 0
gpgpu_stall_shd_mem[l_mem_ld][wb_rsrv_fail] = 0
gpu_reg_bank_conflict_stalls = 0
Warp Occupancy Distribution:
Stall:7196	W0_Idle:18706	W0_Scoreboard:23973	W1:243	W2:0	W3:0	W4:0	W5:0	W6:0	W7:0	W8:0	W9:0	W10:0	W11:0	W12:0	W13:0	W14:0	W15:0	W16:0	W17:0	W18:0	W19:0	W20:0	W21:0	W22:0	W23:0	W24:0	W25:0	W26:0	W27:0	W28:0	W29:0	W30:0	W31:0	W32:30720
traffic_breakdown_coretomem[CONST_ACC_R] = 120 {8:15,}
traffic_breakdown_coretomem[GLOBAL_ACC_R] = 2136 {8:267,}
traffic_breakdown_coretomem[GLOBAL_ACC_W] = 1040 {40:26,}
traffic_breakdown_coretomem[INST_ACC_R] = 256 {8:32,}
traffic_breakdown_memtocore[CONST_ACC_R] = 1080 {72:15,}
traffic_breakdown_memtocore[GLOBAL_ACC_R] = 70488 {264:267,}
traffic_breakdown_memtocore[GLOBAL_ACC_W] = 208 {8:26,}
traffic_breakdown_memtocore[INST_ACC_R] = 4352 {136:32,}
maxmrqlatency = 29 
maxdqlatency = 0 
maxmflatency = 323 
averagemflatency = 267 
max_icnt2mem_latency = 36 
max_icnt2sh_latency = 5791 
mrq_lat_table:223 	4 	29 	27 	7 	0 	0 	0 	0 	0 	0 	0 	0 	0 	0 	0 	0 	0 	0 	0 	0 	0 	0 	0 	0 	0 	0 	0 	0 	0 	0 	0 	
dq_lat_table:0 	0 	0 	0 	0 	0 	0 	0 	0 	0 	0 	0 	0 	0 	0 	0 	0 	0 	0 	0 	0 	0 	0 	0 	0 	0 	0 	0 	0 	0 	0 	0 	
mf_lat_table:0 	0 	0 	0 	0 	0 	0 	29 	279 	0 	0 	0 	0 	0 	0 	0 	0 	0 	0 	0 	0 	0 	0 	0 	0 	0 	0 	0 	0 	0 	0 	0 	
icnt2mem_lat_table:0 	0 	0 	329 	8 	3 	0 	0 	0 	0 	0 	0 	0 	0 	0 	0 	0 	0 	0 	0 	0 	0 	0 	0 	
icnt2sh_lat_table:0 	0 	0 	2 	278 	2 	0 	0 	0 	0 	2 	11 	13 	0 	0 	0 	0 	0 	0 	0 	0 	0 	0 	0 	
mf_lat_pw_table:0 	0 	0 	0 	0 	0 	0 	6 	4 	0 	0 	0 	0 	0 	0 	0 	0 	0 	0 	0 	0 	0 	0 	0 	0 	0 	0 	0 	0 	0 	0 	0 	
maximum concurrent accesses to same row:
dram[0]:         1         0         0         0         0         0         0         0         0         0         0         0         0         0         0         0 
dram[1]:         0         0         0         0         0         0         0         0         0         0         0         0         0         0         0         0 
dram[2]:         0         0         0         0         0         0         0         0         0         0         0         0         0         0         0         0 
dram[3]:         0         0         0         0         0         0         0         0         0         0         0         0         0         0         0         0 
dram[4]:         0         0         0         0         0         0         0         0         0         0        11        11         0         0         0         0 
dram[5]:         0         0         0         0         0         0         0         0         0         0         0         0         0         0         0         0 
maximum service time to same row:
dram[0]:      1998         0      5772         0         0         0         0         0         0         0       934       899      1769      1772         0         0 
dram[1]:      1188         0         0         0         0         0         0         0         0         0       938       906      1763      1751         0      3791 
dram[2]:         0         0         0      2897         0      1435         0         0         0      4135       941       910      1757      1404         0         0 
dram[3]:         0         0         0      4950         0      4541         0         0         0         0       947       919      1782      1760         0         0 
dram[4]:         0      3719         0         0         0      5357         0         0         0         0      1038      2399      1765      1790      2968         0 
dram[5]:         0         0         0         0         0         0         0         0         0         0       918       922      1801      1768      5429         0 
average row accesses per activate:
dram[0]:  1.000000      -nan  2.000000      -nan      -nan      -nan      -nan      -nan      -nan      -nan 10.000000 11.000000 11.000000 11.000000      -nan      -nan 
dram[1]:  1.000000      -nan      -nan      -nan      -nan      -nan      -nan      -nan      -nan      -nan 10.000000 11.000000 13.000000 11.000000      -nan  3.000000 
dram[2]:      -nan      -nan      -nan  2.000000      -nan  1.000000      -nan      -nan      -nan  2.000000 10.000000 11.000000 11.000000 12.000000      -nan      -nan 
dram[3]:      -nan      -nan      -nan  2.000000      -nan  2.000000      -nan      -nan      -nan      -nan 10.000000 11.000000 11.000000 10.000000      -nan      -nan 
dram[4]:      -nan  2.000000      -nan      -nan      -nan  2.000000      -nan      -nan      -nan      -nan  4.666667  6.500000 11.000000 10.000000  2.000000      -nan 
dram[5]:      -nan      -nan      -nan      -nan      -nan      -nan      -nan      -nan      -nan      -nan 11.000000 11.000000 11.000000 10.000000  1.000000      -nan 
average row locality = 290/42 = 6.904762
number of total memory accesses made:
dram[0]:         0         0         0         0         0         0         0         0         0         0         0         0         0         0         0         0 
dram[1]:         0         0         0         0         0         0         0         0         0         0         0         0         0         0         0         0 
dram[2]:         0         0         0         0         0         0         0         0         0         0         0         0         0         0         0         0 
dram[3]:         0         0         0         0         0         0         0         0         0         0         0         0         0         0         0         0 
dram[4]:         0         0         0         0         0         0         0         0         0         0         0         0         0         0         0         0 
dram[5]:         0         0         0         0         0         0         0         0         0         0         0         0         0         0         0         0 
total accesses: 0
min_bank_accesses = 0!
min_chip_accesses = 0!
number of total read accesses:
dram[0]:         3         0         1         0         0         0         0         0         0         0        10        11        11        11         0         0 
dram[1]:         1         0         0         0         0         0         0         0         0         0        10        11        13        11         0         3 
dram[2]:         0         0         0         1         0         1         0         0         0         1        10        11        11        11         0         0 
dram[3]:         0         0         0         1         0         1         0         0         0         0        10        11        11        10         0         0 
dram[4]:         0         1         0         0         0         1         0         0         0         0        13        12        11        10         2         0 
dram[5]:         0         0         0         0         0         0         0         0         0         0        11        11        11        10         1         0 
total reads: 280
min_bank_accesses = 0!
chip skew: 50/44 = 1.14
number of total write accesses:
dram[0]:         0         0         1         0         0         0         0         0         0         0         0         0         0         0         0         0 
dram[1]:         0         0         0         0         0         0         0         0         0         0         0         0         0         0         0         0 
dram[2]:         0         0         0         1         0         0         0         0         0         1         0         0         0         1         0         0 
dram[3]:         0         0         0         1         0         1         0         0         0         0         0         0         0         0         0         0 
dram[4]:         0         1         0         0         0         1         0         0         0         0         1         1         0         0         0         0 
dram[5]:         0         0         0         0         0         0         0         0         0         0         0         0         0         0         0         0 
total reads: 10
min_bank_accesses = 0!
min_chip_accesses = 0!
average mf latency per bank:
dram[0]:       1408    none         126    none      none      none      none      none      none      none         275       272       299       276    none      none  
dram[1]:          0    none      none      none      none      none      none      none      none      none         290       279       269       271    none         270
dram[2]:     none      none      none         126    none         276    none      none      none         126       274       274       274       250    none      none  
dram[3]:     none      none      none         126    none         125    none      none      none      none         288       301       301       280    none      none  
dram[4]:     none         126    none      none      none         126    none      none      none      none         335       254       274       276       272    none  
dram[5]:     none      none      none      none      none      none      none      none      none      none         277       273       276       278       276    none  
maximum mf latency per bank:
dram[0]:        285         0       252         0         0         0         0         0         0         0       299       278       288       310         0         0
dram[1]:          0         0         0         0         0         0         0         0         0         0       287       299       276       286         0       276
dram[2]:          0         0         0       252         0       276         0         0         0       252       292       295       292       302         0         0
dram[3]:          0         0         0       252         0       251         0         0         0         0       287       295       298       323         0         0
dram[4]:          0       252         0         0         0       252         0         0         0         0       288       285       284       304       277         0
dram[5]:          0         0         0         0         0         0         0         0         0         0       309       285       294       306       276         0

Number of Memory Banks Accessed per Memory Operation per Warp (from 0):
0	0	0	0	0	0	0	0	0	0	0	0	0	0	0	0	0	0	0	0	0	0	0	0	0	0	0	0	0	0	0	0	0	0	0	0	0	0	0	0	0	0	0	0	0	0	0	0	0	0	0	0	0	0	0	0	0	0	0	0	0	0	0	0	0	0	0	0	0	0	0	0	0	0	0	0	0	0	0	0	0	0	0	0	0	0	0	0	0	0	0	0	0	0	0	0	
Average # of Memory Banks Accessed per Memory Operation per Warp=-nan

position of mrq chosen
0	0	0	0	0	0	0	0	0	0	0	0	0	0	0	0	

average position of mrq chosen = -nan
Memory Partition 0: 
Cache L2_bank_000:
MSHR contents
MSHR: tag=0x80234400, atomic=0 1 entries : 0x7f3cffc41820 :  mf: uid= 34713, sid01:w00, part=0, addr=0x80234440, load , size=32, unknown  status = IN_PARTITION_DRAM (5791), 

Cache L2_bank_001:
MSHR contents

In Dram Latency Queue (total = 0): 
DRAM[0]: 16 bks, busW=4 BL=8 CL=12, tRRD=2 tCCD=6, tRCD=12 tRAS=28 tRP=12 tRC=40
n_cmd=7645 n_nop=7447 n_act=8 n_pre=2 n_req=48 n_rd=187 n_write=1 bw_util=0.04918
n_activity=879 dram_eff=0.4278
bk0: 12a 7554i bk1: 0a 7642i bk2: 3a 7618i bk3: 0a 7643i bk4: 0a 7645i bk5: 0a 7645i bk6: 0a 7646i bk7: 0a 7646i bk8: 0a 7647i bk9: 0a 7647i bk10: 40a 7515i bk11: 44a 7489i bk12: 44a 7492i bk13: 44a 7451i bk14: 0a 7645i bk15: 0a 7645i 
dram_util_bins: 0 0 0 0 0 0 0 0 0 0
dram_eff_bins: 0 0 0 0 0 0 0 0 0 0
mrqq: max=2 avg=0.0184434
Memory Partition 1: 
Cache L2_bank_002:
MSHR contents

Cache L2_bank_003:
MSHR contents

In Dram Latency Queue (total = 0): 
DRAM[1]: 16 bks, busW=4 BL=8 CL=12, tRRD=2 tCCD=6, tRCD=12 tRAS=28 tRP=12 tRC=40
n_cmd=7645 n_nop=7443 n_act=6 n_pre=0 n_req=49 n_rd=196 n_write=0 bw_util=0.05128
n_activity=859 dram_eff=0.4563
bk0: 4a 7620i bk1: 0a 7642i bk2: 0a 7642i bk3: 0a 7642i bk4: 0a 7642i bk5: 0a 7644i bk6: 0a 7644i bk7: 0a 7646i bk8: 0a 7648i bk9: 0a 7648i bk10: 40a 7527i bk11: 44a 7471i bk12: 52a 7500i bk13: 44a 7483i bk14: 0a 7644i bk15: 12a 7602i 
dram_util_bins: 0 0 0 0 0 0 0 0 0 0
dram_eff_bins: 0 0 0 0 0 0 0 0 0 0
mrqq: max=2 avg=0.0121648
Memory Partition 2: 
Cache L2_bank_004:
MSHR contents

Cache L2_bank_005:
MSHR contents

In Dram Latency Queue (total = 0): 
DRAM[2]: 16 bks, busW=4 BL=8 CL=12, tRRD=2 tCCD=6, tRCD=12 tRAS=28 tRP=12 tRC=40
n_cmd=7645 n_nop=7451 n_act=7 n_pre=0 n_req=49 n_rd=184 n_write=3 bw_util=0.04892
n_activity=841 dram_eff=0.4447
bk0: 0a 7644i bk1: 0a 7645i bk2: 0a 7646i bk3: 4a 7617i bk4: 0a 7645i bk5: 4a 7622i bk6: 0a 7645i bk7: 0a 7646i bk8: 0a 7648i bk9: 4a 7619i bk10: 40a 7512i bk11: 44a 7455i bk12: 44a 7483i bk13: 44a 7444i bk14: 0a 7643i bk15: 0a 7643i 
dram_util_bins: 0 0 0 0 0 0 0 0 0 0
dram_eff_bins: 0 0 0 0 0 0 0 0 0 0
mrqq: max=2 avg=0.0170046
Memory Partition 3: 
Cache L2_bank_006:
MSHR contents

Cache L2_bank_007:
MSHR contents

In Dram Latency Queue (total = 0): 
DRAM[3]: 16 bks, busW=4 BL=8 CL=12, tRRD=2 tCCD=6, tRCD=12 tRAS=28 tRP=12 tRC=40
n_cmd=7645 n_nop=7461 n_act=6 n_pre=0 n_req=46 n_rd=176 n_write=2 bw_util=0.04657
n_activity=722 dram_eff=0.4931
bk0: 0a 7645i bk1: 0a 7646i bk2: 0a 7647i bk3: 4a 7618i bk4: 0a 7645i bk5: 4a 7616i bk6: 0a 7643i bk7: 0a 7645i bk8: 0a 7646i bk9: 0a 7646i bk10: 40a 7521i bk11: 44a 7488i bk12: 44a 7499i bk13: 40a 7426i bk14: 0a 7641i bk15: 0a 7643i 
dram_util_bins: 0 0 0 0 0 0 0 0 0 0
dram_eff_bins: 0 0 0 0 0 0 0 0 0 0
mrqq: max=3 avg=0.0304774
Memory Partition 4: 
Cache L2_bank_008:
MSHR contents

Cache L2_bank_009:
MSHR contents

In Dram Latency Queue (total = 0): 
DRAM[4]: 16 bks, busW=4 BL=8 CL=12, tRRD=2 tCCD=6, tRCD=12 tRAS=28 tRP=12 tRC=40
n_cmd=7645 n_nop=7428 n_act=10 n_pre=3 n_req=54 n_rd=200 n_write=4 bw_util=0.05337
n_activity=944 dram_eff=0.4322
bk0: 0a 7643i bk1: 4a 7617i bk2: 0a 7644i bk3: 0a 7644i bk4: 0a 7644i bk5: 4a 7617i bk6: 0a 7645i bk7: 0a 7647i bk8: 0a 7648i bk9: 0a 7650i bk10: 52a 7427i bk11: 48a 7405i bk12: 44a 7498i bk13: 40a 7471i bk14: 8a 7610i bk15: 0a 7641i 
dram_util_bins: 0 0 0 0 0 0 0 0 0 0
dram_eff_bins: 0 0 0 0 0 0 0 0 0 0
mrqq: max=1 avg=0.0150425
Memory Partition 5: 
Cache L2_bank_010:
MSHR contents

Cache L2_bank_011:
MSHR contents

In Dram Latency Queue (total = 0): 
DRAM[5]: 16 bks, busW=4 BL=8 CL=12, tRRD=2 tCCD=6, tRCD=12 tRAS=28 tRP=12 tRC=40
n_cmd=7645 n_nop=7464 n_act=5 n_pre=0 n_req=44 n_rd=176 n_write=0 bw_util=0.04604
n_activity=722 dram_eff=0.4875
bk0: 0a 7643i bk1: 0a 7644i bk2: 0a 7645i bk3: 0a 7645i bk4: 0a 7645i bk5: 0a 7646i bk6: 0a 7646i bk7: 0a 7646i bk8: 0a 7646i bk9: 0a 7646i bk10: 44a 7506i bk11: 44a 7468i bk12: 44a 7490i bk13: 40a 7457i bk14: 4a 7620i bk15: 0a 7642i 
dram_util_bins: 0 0 0 0 0 0 0 0 0 0
dram_eff_bins: 0 0 0 0 0 0 0 0 0 0
mrqq: max=2 avg=0.0105952

========= L2 cache stats =========
L2_cache_bank[0]: Access = 56, Miss = 25, Miss_rate = 0.446, Pending_hits = 6, Reservation_fails = 231
L2_cache_bank[1]: Access = 22, Miss = 22, Miss_rate = 1.000, Pending_hits = 0, Reservation_fails = 0
L2_cache_bank[2]: Access = 40, Miss = 24, Miss_rate = 0.600, Pending_hits = 3, Reservation_fails = 110
L2_cache_bank[3]: Access = 25, Miss = 25, Miss_rate = 1.000, Pending_hits = 0, Reservation_fails = 0
L2_cache_bank[4]: Access = 21, Miss = 21, Miss_rate = 1.000, Pending_hits = 0, Reservation_fails = 0
L2_cache_bank[5]: Access = 25, Miss = 25, Miss_rate = 1.000, Pending_hits = 0, Reservation_fails = 0
L2_cache_bank[6]: Access = 24, Miss = 21, Miss_rate = 0.875, Pending_hits = 0, Reservation_fails = 0
L2_cache_bank[7]: Access = 25, Miss = 23, Miss_rate = 0.920, Pending_hits = 0, Reservation_fails = 0
L2_cache_bank[8]: Access = 34, Miss = 26, Miss_rate = 0.765, Pending_hits = 0, Reservation_fails = 0
L2_cache_bank[9]: Access = 24, Miss = 24, Miss_rate = 1.000, Pending_hits = 0, Reservation_fails = 0
L2_cache_bank[10]: Access = 23, Miss = 23, Miss_rate = 1.000, Pending_hits = 0, Reservation_fails = 0
L2_cache_bank[11]: Access = 21, Miss = 21, Miss_rate = 1.000, Pending_hits = 0, Reservation_fails = 0
L2_total_cache_accesses = 340
L2_total_cache_misses = 280
L2_total_cache_miss_rate = 0.8235
L2_total_cache_pending_hits = 9
L2_total_cache_reservation_fails = 341
L2_total_cache_breakdown:
	L2_cache_stats_breakdown[GLOBAL_ACC_R][MISS] = 267
	L2_cache_stats_breakdown[CONST_ACC_R][HIT] = 11
	L2_cache_stats_breakdown[CONST_ACC_R][HIT_RESERVED] = 3
	L2_cache_stats_breakdown[CONST_ACC_R][MISS] = 1
	L2_cache_stats_breakdown[CONST_ACC_R][RESERVATION_FAIL] = 111
	L2_cache_stats_breakdown[GLOBAL_ACC_W][HIT] = 16
	L2_cache_stats_breakdown[GLOBAL_ACC_W][MISS] = 10
	L2_cache_stats_breakdown[INST_ACC_R][HIT] = 24
	L2_cache_stats_breakdown[INST_ACC_R][HIT_RESERVED] = 6
	L2_cache_stats_breakdown[INST_ACC_R][MISS] = 2
	L2_cache_stats_breakdown[INST_ACC_R][RESERVATION_FAIL] = 230
L2_cache_data_port_util = 0.002
L2_cache_fill_port_util = 0.032

icnt_total_pkts_mem_to_simt=2634
icnt_total_pkts_simt_to_mem=366
LD_mem_lat_dist  0 0 0 0 0 0 0 0 0 0 0 0 0 0 0 0 0 0 0 0 0 0 0 0 0 0 0
ST_mem_lat_dist  0 0 0 0 0 0 0 0 0 0 0 0 0 0 0 0 0 0 0 0 0 0 0 0 0 0 0
----------------------------Interconnect-DETAILS--------------------------------
Class 0:
Packet latency average = 11.0485
	minimum = 6
	maximum = 37
Network latency average = 10.7206
	minimum = 6
	maximum = 37
Slowest packet = 384
Flit latency average = 7.663
	minimum = 6
	maximum = 34
Slowest flit = 14
Fragmentation average = 0
	minimum = 0
	maximum = 0
Injected packet rate average = 0.00434827
	minimum = 0.00328039 (at node 13)
	maximum = 0.0100138 (at node 1)
Accepted packet rate average = 0.00434827
	minimum = 0.00328039 (at node 13)
	maximum = 0.0100138 (at node 1)
Injected flit rate average = 0.0191835
	minimum = 0.00328039 (at node 13)
	maximum = 0.0562845 (at node 15)
Accepted flit rate average= 0.0191835
	minimum = 0.00362569 (at node 19)
	maximum = 0.0504144 (at node 1)
Injected packet length average = 4.41176
Accepted packet length average = 4.41176
Total in-flight flits = 0 (0 measured)
====== Overall Traffic Statistics ======
====== Traffic class 0 ======
Packet latency average = 11.0485 (1 samples)
	minimum = 6 (1 samples)
	maximum = 37 (1 samples)
Network latency average = 10.7206 (1 samples)
	minimum = 6 (1 samples)
	maximum = 37 (1 samples)
Flit latency average = 7.663 (1 samples)
	minimum = 6 (1 samples)
	maximum = 34 (1 samples)
Fragmentation average = 0 (1 samples)
	minimum = 0 (1 samples)
	maximum = 0 (1 samples)
Injected packet rate average = 0.00434827 (1 samples)
	minimum = 0.00328039 (1 samples)
	maximum = 0.0100138 (1 samples)
Accepted packet rate average = 0.00434827 (1 samples)
	minimum = 0.00328039 (1 samples)
	maximum = 0.0100138 (1 samples)
Injected flit rate average = 0.0191835 (1 samples)
	minimum = 0.00328039 (1 samples)
	maximum = 0.0562845 (1 samples)
Accepted flit rate average = 0.0191835 (1 samples)
	minimum = 0.00362569 (1 samples)
	maximum = 0.0504144 (1 samples)
Injected packet size average = 4.41176 (1 samples)
Accepted packet size average = 4.41176 (1 samples)
Hops average = 1 (1 samples)
----------------------------END-of-Interconnect-DETAILS-------------------------


gpgpu_simulation_time = 0 days, 0 hrs, 0 min, 4 sec (4 sec)
gpgpu_simulation_rate = 229434 (inst/sec)
gpgpu_simulation_rate = 1448 (cycle/sec)
GPGPU-Sim: synchronize waiting for inactive GPU simulation
GPGPU-Sim API: Stream Manager State
GPGPU-Sim: detected inactive GPU simulation thread

GPGPU-Sim PTX: cudaLaunch for 0x0x405636 (mode=performance simulation) on stream 0
GPGPU-Sim PTX: pushing kernel '_Z6KernelP4NodePiPbS2_S1_S2_i' to stream 0, gridDim= (256,1,1) blockDim = (256,1,1) 
[...]
traffic_breakdown_memtocore[GLOBAL_ACC_R] = 116531976 {264:441409,}
traffic_breakdown_memtocore[GLOBAL_ACC_W] = 3232424 {8:404053,}
traffic_breakdown_memtocore[INST_ACC_R] = 8160 {136:60,}
maxmrqlatency = 989 
maxdqlatency = 0 
maxmflatency = 1997 
averagemflatency = 566 
max_icnt2mem_latency = 1386 
max_icnt2sh_latency = 905919 
mrq_lat_table:46700 	282 	1419 	3370 	3633 	1322 	762 	805 	377 	31 	0 	0 	0 	0 	0 	0 	0 	0 	0 	0 	0 	0 	0 	0 	0 	0 	0 	0 	0 	0 	0 	0 	
dq_lat_table:0 	0 	0 	0 	0 	0 	0 	0 	0 	0 	0 	0 	0 	0 	0 	0 	0 	0 	0 	0 	0 	0 	0 	0 	0 	0 	0 	0 	0 	0 	0 	0 	
mf_lat_table:0 	0 	0 	0 	0 	0 	0 	34070 	318435 	475444 	17528 	0 	0 	0 	0 	0 	0 	0 	0 	0 	0 	0 	0 	0 	0 	0 	0 	0 	0 	0 	0 	0 	
icnt2mem_lat_table:0 	0 	0 	36727 	10509 	44390 	214756 	118770 	338627 	81023 	735 	0 	0 	0 	0 	0 	0 	0 	0 	0 	0 	0 	0 	0 	
icnt2sh_lat_table:0 	0 	0 	2 	326132 	100128 	14871 	289 	2 	0 	2 	11 	40 	964 	7438 	16343 	35847 	79229 	147669 	116510 	0 	0 	0 	0 	
mf_lat_pw_table:0 	0 	0 	0 	0 	0 	0 	77 	267 	1473 	0 	0 	0 	0 	0 	0 	0 	0 	0 	0 	0 	0 	0 	0 	0 	0 	0 	0 	0 	0 	0 	0 	
maximum concurrent accesses to same row:
dram[0]:        20        26        19        13        17        15        16        17        25        18        16        22        17        17        28        20 
dram[1]:        21        32        20        15        13        10        16        16        13        16        14        11        18        22        36        40 
dram[2]:        15        18        18        15        16        16        16        16        18        16        17        16        16        16        24        28 
dram[3]:        23        13        21        17        14        18        19        16        24        16        15        14        17        24        26        34 
dram[4]:        16        16        14        16        12        14        18        16        17        19        15        26        18        19        21        18 
dram[5]:        16        19        12        20        12        16        22        16        15        16        13        13        25        23        19        21 
maximum service time to same row:
dram[0]:     73783     61574     54517     84778     50005     63840     31345     43794     71199     71756     50954    109744     76051     81582     77795     83653 
dram[1]:     52230     49354     64612     56893     48221     40570     67829     65972     79293     59893     68568     52969     75223     99484     72705     72419 
dram[2]:     39102     42906     67303     52774     92642     72389    128522     65279     63614     90753    112418    109666     57070     55540    161201    172666 
dram[3]:     52128     67413    104911    140487     44412     51112     32937     65314     80845     42307     54154     75191     32706     51184     62827     67844 
dram[4]:     71859     69349     51888     59024     87580     57330     67466     70964    103775     69797     68123     76088     90686     78168     86303    112779 
dram[5]:     49501     69255    134819    140513     45713     62257     51177     58612     85101     70629     87300    127934     54065     61295    139658    141928 
average row accesses per activate:
dram[0]:  2.397112  2.216495  2.516129  2.386029  2.596330  2.398268  2.183288  2.120907  2.440945  2.323024  2.155172  2.006270  2.454545  2.566265  3.596330  2.921429 
dram[1]:  2.496241  2.717489  2.144737  2.169540  2.010929  2.017751  2.067916  2.090909  2.143750  2.062874  2.389121  2.115524  2.131222  2.207071  2.506912  2.555556 
dram[2]:  2.407273  2.375000  2.433692  2.417583  2.259690  2.413655  2.631356  2.513726  2.278846  2.159639  2.236667  2.502092  2.439153  2.730496  3.200000  3.321101 
dram[3]:  2.227397  2.157754  2.293515  2.408730  2.280702  2.128440  2.296588  2.256219  2.259366  2.321023  1.957929  1.941781  2.512048  2.375000  2.277533  2.558376 
dram[4]:  2.834286  2.839081  2.210526  2.191781  2.318008  2.228682  2.190083  2.216216  2.611111  2.700855  2.329365  2.566327  2.461078  3.032000  3.013605  3.333333 
dram[5]:  2.240260  2.320000  2.200000  2.201863  2.067742  2.103550  2.707921  2.513834  2.245955  2.155963  2.039394  1.915761  2.491329  2.200000  2.826446  2.942623 
average row locality = 58701/25310 = 2.319281
number of total memory accesses made:
dram[0]:         0         0         0         0         0         0         0         0         0         0         0         0         0         0         0         0 
dram[1]:         0         0         0         0         0         0         0         0         0         0         0         0         0         0         0         0 
dram[2]:         0         0         0         0         0         0         0         0         0         0         0         0         0         0         0         0 
dram[3]:         0         0         0         0         0         0         0         0         0         0         0         0         0         0         0         0 
dram[4]:         0         0         0         0         0         0         0         0         0         0         0         0         0         0         0         0 
dram[5]:         0         0         0         0         0         0         0         0         0         0         0         0         0         0         0         0 
total accesses: 0
min_bank_accesses = 0!
min_chip_accesses = 0!
number of total read accesses:
dram[0]:       447       437       465       441       404       405       595       623       455       495       507       524       387       378       384       402 
dram[1]:       445       407       456       528       531       511       652       660       523       511       432       457       426       410       528       493 
dram[2]:       456       477       460       447       433       440       457       474       518       526       505       479       407       365       346       356 
dram[3]:       577       565       463       439       472       523       656       658       580       590       472       442       384       407       507       497 
dram[4]:       365       353       487       455       442       433       597       502       418       456       448       390       363       335       427       364 
dram[5]:       480       466       510       491       478       539       442       492       527       530       519       537       392       418       334       352 
total reads: 45039
bank skew: 660/334 = 1.98
chip skew: 8232/6835 = 1.20
number of total write accesses:
dram[0]:       217       208       237       208       162       149       215       219       165       181       118       116        45        48         8         7 
dram[1]:       219       199       196       227       205       171       231       237       163       178       139       129        45        27        16        13 
dram[2]:       206       226       219       213       150       161       164       167       193       191       166       119        54        20         6         6 
dram[3]:       236       242       209       168       178       173       219       249       204       227       133       125        33        30        10         7 
dram[4]:       131       141       227       185       163       142       198       154       146       176       139       113        48        44        16         6 
dram[5]:       210       230       216       218       163       172       105       144       167       175       154       168        39        55         8         7 
total reads: 13662
bank skew: 249/6 = 41.50
chip skew: 2443/2029 = 1.20
average mf latency per bank:
dram[0]:       3305      3441      3540      3959      4623      4709      3425      3284      3936      3759      7989      7993     18259     18808     25998     24902
dram[1]:       3379      3770      3933      3477      3793      4108      3299      3366      3808      3886      8457      8966     16981     18500     19137     20742
dram[2]:       3453      3206      3589      3649      4546      4447      4406      4242      3750      3774      7477      9105     17564     21997     28845     29133
dram[3]:       2861      2795      3732      4156      4111      3858      3279      3047      3291      3144      8284      9165     19173     18408     20014     20427
dram[4]:       6041      4435      4789      3883      6103      4700      4954      4134      6308      4009     61941     10393     27262     21915     32424     27423
dram[5]:       3163      3313      3377      3677      4017      3821      4819      4332      3619      3694      7642      7560     18481     17610     28751     28352
maximum mf latency per bank:
dram[0]:       1459      1342      1351      1402      1560      1636      1542      1499      1515      1402      1401      1416      1452      1439      1405      1498
dram[1]:       1408      1463      1376      1472      1631      1395      1368      1480      1535      1343      1415      1269      1664      1458      1329      1447
dram[2]:       1319      1389      1313      1750      1475      1379      1549      1546      1655      1398      1379      1400      1680      1447      1683      1769
dram[3]:       1382      1643      1305      1333      1405      1335      1448      1326      1322      1404      1279      1507      1785      1469      1813      1503
dram[4]:       1706      1575      1642      1299      1878      1481      1626      1279      1997      1336      1837      1459      1902      1554      1706      1501
dram[5]:       1482      1392      1467      1405      1628      1519      1345      1664      1565      1580      1470      1352      1497      1376      1434      1503

Number of Memory Banks Accessed per Memory Operation per Warp (from 0):
0	0	0	0	0	0	0	0	0	0	0	0	0	0	0	0	0	0	0	0	0	0	0	0	0	0	0	0	0	0	0	0	0	0	0	0	0	0	0	0	0	0	0	0	0	0	0	0	0	0	0	0	0	0	0	0	0	0	0	0	0	0	0	0	0	0	0	0	0	0	0	0	0	0	0	0	0	0	0	0	0	0	0	0	0	0	0	0	0	0	0	0	0	0	0	0	
Average # of Memory Banks Accessed per Memory Operation per Warp=-nan

position of mrq chosen
0	0	0	0	0	0	0	0	0	0	0	0	0	0	0	0	

average position of mrq chosen = -nan
Memory Partition 0: 
Cache L2_bank_000:
MSHR contents

Cache L2_bank_001:
MSHR contents

In Dram Latency Queue (total = 0): 
DRAM[0]: 16 bks, busW=4 BL=8 CL=12, tRRD=2 tCCD=6, tRCD=12 tRAS=28 tRP=12 tRC=40
n_cmd=1198798 n_nop=1155686 n_act=4081 n_pre=4065 n_req=9652 n_rd=29396 n_write=5570 bw_util=0.05834
n_activity=234337 dram_eff=0.2984
bk0: 1788a 1182406i bk1: 1748a 1181706i bk2: 1860a 1179230i bk3: 1764a 1179763i bk4: 1616a 1183583i bk5: 1620a 1183588i bk6: 2380a 1176573i bk7: 2492a 1174569i bk8: 1820a 1182993i bk9: 1980a 1182326i bk10: 2028a 1181539i bk11: 2096a 1181227i bk12: 1548a 1186962i bk13: 1512a 1186633i bk14: 1536a 1189818i bk15: 1608a 1188576i 
dram_util_bins: 0 0 0 0 0 0 0 0 0 0
dram_eff_bins: 0 0 0 0 0 0 0 0 0 0
mrqq: max=16 avg=0.119435
Memory Partition 1: 
Cache L2_bank_002:
MSHR contents

Cache L2_bank_003:
MSHR contents

In Dram Latency Queue (total = 0): 
DRAM[1]: 16 bks, busW=4 BL=8 CL=12, tRRD=2 tCCD=6, tRCD=12 tRAS=28 tRP=12 tRC=40
n_cmd=1198798 n_nop=1151615 n_act=4705 n_pre=4689 n_req=10365 n_rd=31880 n_write=5909 bw_util=0.06304
n_activity=255943 dram_eff=0.2953
bk0: 1780a 1183905i bk1: 1628a 1183468i bk2: 1824a 1180541i bk3: 2112a 1178306i bk4: 2124a 1178090i bk5: 2044a 1178705i bk6: 2608a 1175068i bk7: 2640a 1174097i bk8: 2092a 1180064i bk9: 2044a 1179345i bk10: 1728a 1184185i bk11: 1828a 1182626i bk12: 1704a 1185611i bk13: 1640a 1186564i bk14: 2112a 1184987i bk15: 1972a 1185686i 
dram_util_bins: 0 0 0 0 0 0 0 0 0 0
dram_eff_bins: 0 0 0 0 0 0 0 0 0 0
mrqq: max=16 avg=0.0782876
Memory Partition 2: 
Cache L2_bank_004:
MSHR contents

Cache L2_bank_005:
MSHR contents

In Dram Latency Queue (total = 0): 
DRAM[2]: 16 bks, busW=4 BL=8 CL=12, tRRD=2 tCCD=6, tRCD=12 tRAS=28 tRP=12 tRC=40
n_cmd=1198798 n_nop=1157079 n_act=3853 n_pre=3837 n_req=9407 n_rd=28584 n_write=5445 bw_util=0.05677
n_activity=225415 dram_eff=0.3019
bk0: 1824a 1181952i bk1: 1908a 1181674i bk2: 1840a 1179602i bk3: 1788a 1179829i bk4: 1732a 1183432i bk5: 1760a 1182412i bk6: 1828a 1183083i bk7: 1896a 1180255i bk8: 2072a 1179772i bk9: 2104a 1178411i bk10: 2020a 1180746i bk11: 1916a 1183573i bk12: 1628a 1185513i bk13: 1460a 1188040i bk14: 1384a 1190963i bk15: 1424a 1190353i 
dram_util_bins: 0 0 0 0 0 0 0 0 0 0
dram_eff_bins: 0 0 0 0 0 0 0 0 0 0
mrqq: max=16 avg=0.115355
Memory Partition 3: 
Cache L2_bank_006:
MSHR contents

Cache L2_bank_007:
MSHR contents

In Dram Latency Queue (total = 0): 
DRAM[3]: 16 bks, busW=4 BL=8 CL=12, tRRD=2 tCCD=6, tRCD=12 tRAS=28 tRP=12 tRC=40
n_cmd=1198798 n_nop=1150405 n_act=4753 n_pre=4737 n_req=10675 n_rd=32928 n_write=5975 bw_util=0.0649
n_activity=260960 dram_eff=0.2982
bk0: 2308a 1178047i bk1: 2260a 1176847i bk2: 1852a 1180984i bk3: 1756a 1183123i bk4: 1888a 1182034i bk5: 2092a 1181021i bk6: 2624a 1177044i bk7: 2632a 1175391i bk8: 2320a 1177951i bk9: 2360a 1177187i bk10: 1888a 1181399i bk11: 1768a 1182574i bk12: 1536a 1187892i bk13: 1628a 1187141i bk14: 2028a 1185906i bk15: 1988a 1186614i 
dram_util_bins: 0 0 0 0 0 0 0 0 0 0
dram_eff_bins: 0 0 0 0 0 0 0 0 0 0
mrqq: max=16 avg=0.0780465
Memory Partition 4: 
Cache L2_bank_008:
MSHR contents

Cache L2_bank_009:
MSHR contents

In Dram Latency Queue (total = 0): 
DRAM[4]: 16 bks, busW=4 BL=8 CL=12, tRRD=2 tCCD=6, tRCD=12 tRAS=28 tRP=12 tRC=40
n_cmd=1198798 n_nop=1159283 n_act=3590 n_pre=3574 n_req=8864 n_rd=27340 n_write=5011 bw_util=0.05397
n_activity=216108 dram_eff=0.2994
bk0: 1460a 1185473i bk1: 1412a 1186872i bk2: 1948a 1179381i bk3: 1820a 1181327i bk4: 1768a 1183105i bk5: 1732a 1181167i bk6: 2388a 1177376i bk7: 2008a 1181451i bk8: 1672a 1183921i bk9: 1824a 1182377i bk10: 1792a 1183347i bk11: 1560a 1184972i bk12: 1452a 1187073i bk13: 1340a 1188302i bk14: 1708a 1188469i bk15: 1456a 1189442i 
dram_util_bins: 0 0 0 0 0 0 0 0 0 0
dram_eff_bins: 0 0 0 0 0 0 0 0 0 0
mrqq: max=16 avg=0.124188
Memory Partition 5: 
Cache L2_bank_010:
MSHR contents

Cache L2_bank_011:
MSHR contents

In Dram Latency Queue (total = 0): 
DRAM[5]: 16 bks, busW=4 BL=8 CL=12, tRRD=2 tCCD=6, tRCD=12 tRAS=28 tRP=12 tRC=40
n_cmd=1198798 n_nop=1154649 n_act=4328 n_pre=4312 n_req=9738 n_rd=30028 n_write=5481 bw_util=0.05924
n_activity=243659 dram_eff=0.2915
bk0: 1920a 1181537i bk1: 1864a 1180793i bk2: 2040a 1180349i bk3: 1964a 1180037i bk4: 1912a 1181484i bk5: 2156a 1179797i bk6: 1768a 1185128i bk7: 1968a 1182278i bk8: 2108a 1180427i bk9: 2120a 1179463i bk10: 2076a 1180943i bk11: 2148a 1179435i bk12: 1568a 1187709i bk13: 1672a 1185213i bk14: 1336a 1189558i bk15: 1408a 1189373i 
dram_util_bins: 0 0 0 0 0 0 0 0 0 0
dram_eff_bins: 0 0 0 0 0 0 0 0 0 0
mrqq: max=16 avg=0.0918303

========= L2 cache stats =========
L2_cache_bank[0]: Access = 66502, Miss = 3644, Miss_rate = 0.055, Pending_hits = 42, Reservation_fails = 603
L2_cache_bank[1]: Access = 66969, Miss = 3705, Miss_rate = 0.055, Pending_hits = 36, Reservation_fails = 740
L2_cache_bank[2]: Access = 66605, Miss = 3993, Miss_rate = 0.060, Pending_hits = 32, Reservation_fails = 114
L2_cache_bank[3]: Access = 67829, Miss = 3977, Miss_rate = 0.059, Pending_hits = 30, Reservation_fails = 1
L2_cache_bank[4]: Access = 66549, Miss = 3582, Miss_rate = 0.054, Pending_hits = 42, Reservation_fails = 25
L2_cache_bank[5]: Access = 67226, Miss = 3564, Miss_rate = 0.053, Pending_hits = 20, Reservation_fails = 478
L2_cache_bank[6]: Access = 67241, Miss = 4111, Miss_rate = 0.061, Pending_hits = 44, Reservation_fails = 0
L2_cache_bank[7]: Access = 67309, Miss = 4121, Miss_rate = 0.061, Pending_hits = 32, Reservation_fails = 3
L2_cache_bank[8]: Access = 107089, Miss = 3547, Miss_rate = 0.033, Pending_hits = 28, Reservation_fails = 301
L2_cache_bank[9]: Access = 67474, Miss = 3288, Miss_rate = 0.049, Pending_hits = 20, Reservation_fails = 134
L2_cache_bank[10]: Access = 67132, Miss = 3682, Miss_rate = 0.055, Pending_hits = 30, Reservation_fails = 1
L2_cache_bank[11]: Access = 67612, Miss = 3825, Miss_rate = 0.057, Pending_hits = 33, Reservation_fails = 26
L2_total_cache_accesses = 845537
L2_total_cache_misses = 45039
L2_total_cache_miss_rate = 0.0533
L2_total_cache_pending_hits = 389
L2_total_cache_reservation_fails = 2426
L2_total_cache_breakdown:
	L2_cache_stats_breakdown[GLOBAL_ACC_R][HIT] = 403080
	L2_cache_stats_breakdown[GLOBAL_ACC_R][HIT_RESERVED] = 84
	L2_cache_stats_breakdown[GLOBAL_ACC_R][MISS] = 38245
	L2_cache_stats_breakdown[GLOBAL_ACC_R][RESERVATION_FAIL] = 2074
	L2_cache_stats_breakdown[CONST_ACC_R][HIT] = 11
	L2_cache_stats_breakdown[CONST_ACC_R][HIT_RESERVED] = 3
	L2_cache_stats_breakdown[CONST_ACC_R][MISS] = 1
	L2_cache_stats_breakdown[CONST_ACC_R][RESERVATION_FAIL] = 111
	L2_cache_stats_breakdown[GLOBAL_ACC_W][HIT] = 396966
	L2_cache_stats_breakdown[GLOBAL_ACC_W][HIT_RESERVED] = 296
	L2_cache_stats_breakdown[GLOBAL_ACC_W][MISS] = 6791
	L2_cache_stats_breakdown[GLOBAL_ACC_W][RESERVATION_FAIL] = 11
	L2_cache_stats_breakdown[INST_ACC_R][HIT] = 52
	L2_cache_stats_breakdown[INST_ACC_R][HIT_RESERVED] = 6
	L2_cache_stats_breakdown[INST_ACC_R][MISS] = 2
	L2_cache_stats_breakdown[INST_ACC_R][RESERVATION_FAIL] = 230
L2_cache_data_port_util = 0.337
L2_cache_fill_port_util = 0.033

icnt_total_pkts_mem_to_simt=4377079
icnt_total_pkts_simt_to_mem=1250133
LD_mem_lat_dist  0 0 0 0 0 0 0 0 0 0 0 0 0 0 0 0 0 0 0 0 0 0 0 0 0 0 0
ST_mem_lat_dist  0 0 0 0 0 0 0 0 0 0 0 0 0 0 0 0 0 0 0 0 0 0 0 0 0 0 0
----------------------------Interconnect-DETAILS--------------------------------
Class 0:
Packet latency average = 10.9987
	minimum = 6
	maximum = 53
Network latency average = 10.8405
	minimum = 6
	maximum = 53
Slowest packet = 1690691
Flit latency average = 8.24497
	minimum = 6
	maximum = 45
Slowest flit = 5625101
Fragmentation average = 0
	minimum = 0
	maximum = 0
Injected packet rate average = 0.0169142
	minimum = 0.00659782 (at node 13)
	maximum = 0.0235227 (at node 21)
Accepted packet rate average = 0.0169142
	minimum = 0.00659782 (at node 13)
	maximum = 0.0235227 (at node 21)
Injected flit rate average = 0.0738616
	minimum = 0.00659782 (at node 13)
	maximum = 0.179575 (at node 21)
Accepted flit rate average= 0.0738616
	minimum = 0.0172117 (at node 19)
	maximum = 0.167814 (at node 1)
Injected packet length average = 4.36683
Accepted packet length average = 4.36683
Total in-flight flits = 0 (0 measured)
====== Overall Traffic Statistics ======
====== Traffic class 0 ======
Packet latency average = 48.1009 (8 samples)
	minimum = 6 (8 samples)
	maximum = 511.875 (8 samples)
Network latency average = 30.4395 (8 samples)
	minimum = 6 (8 samples)
	maximum = 373 (8 samples)
Flit latency average = 18.5086 (8 samples)
	minimum = 6 (8 samples)
	maximum = 370.5 (8 samples)
Fragmentation average = 0.0742181 (8 samples)
	minimum = 0 (8 samples)
	maximum = 273.75 (8 samples)
Injected packet rate average = 0.0379244 (8 samples)
	minimum = 0.0283802 (8 samples)
	maximum = 0.076785 (8 samples)
Accepted packet rate average = 0.0379244 (8 samples)
	minimum = 0.0283802 (8 samples)
	maximum = 0.076785 (8 samples)
Injected flit rate average = 0.131437 (8 samples)
	minimum = 0.0402116 (8 samples)
	maximum = 0.276 (8 samples)
Accepted flit rate average = 0.131437 (8 samples)
	minimum = 0.0526439 (8 samples)
	maximum = 0.233837 (8 samples)
Injected packet size average = 3.46577 (8 samples)
Accepted packet size average = 3.46577 (8 samples)
Hops average = 1 (8 samples)
----------------------------END-of-Interconnect-DETAILS-------------------------


gpgpu_simulation_time = 0 days, 0 hrs, 8 min, 39 sec (519 sec)
gpgpu_simulation_rate = 30380 (inst/sec)
gpgpu_simulation_rate = 1749 (cycle/sec)
GPGPU-Sim: synchronize waiting for inactive GPU simulation
GPGPU-Sim API: Stream Manager State
GPGPU-Sim: detected inactive GPU simulation thread
Kernel Executed 8 times
Processing time: 518013.656250 (ms)
Result stored in result.txt
