

        *** GPGPU-Sim Simulator Version 3.2.2  [build 0] ***


GPGPU-Sim PTX: simulation mode 0 (can change with PTX_SIM_MODE_FUNC environment variable:
               1=functional simulation only, 0=detailed performance simulator)
GPGPU-Sim: Configuration options:

-network_mode                           1 # Interconnection network mode
-inter_config_file   config_fermi_islip.icnt # Interconnection network config file
-gpgpu_ptx_use_cuobjdump                    1 # Use cuobjdump to extract ptx and sass from binaries
-gpgpu_experimental_lib_support                    0 # Try to extract code from cuda libraries [Broken because of unknown cudaGetExportTable]
-gpgpu_ptx_convert_to_ptxplus                    0 # Convert SASS (native ISA) to ptxplus and run ptxplus
-gpgpu_ptx_force_max_capability                   20 # Force maximum compute capability
-gpgpu_ptx_inst_debug_to_file                    0 # Dump executed instructions' debug information to file
-gpgpu_ptx_inst_debug_file       inst_debug.txt # Executed instructions' debug output file
-gpgpu_ptx_inst_debug_thread_uid                    1 # Thread UID for executed instructions' debug output
-gpgpu_simd_model                       1 # 1 = post-dominator
-gpgpu_shader_core_pipeline              1536:32 # shader core pipeline config, i.e., {<nthread>:<warpsize>}
-gpgpu_tex_cache:l1  4:128:24,L:R:m:N:L,F:128:4,128:2 # per-shader L1 texture cache  (READ-ONLY) config  {<nsets>:<bsize>:<assoc>,<rep>:<wr>:<alloc>:<wr_alloc>,<mshr>:<N>:<merge>,<mq>:<rf>}
-gpgpu_const_cache:l1 64:64:2,L:R:f:N:L,A:2:32,4 # per-shader L1 constant memory cache  (READ-ONLY) config  {<nsets>:<bsize>:<assoc>,<rep>:<wr>:<alloc>:<wr_alloc>,<mshr>:<N>:<merge>,<mq>} 
-gpgpu_cache:il1     4:128:4,L:R:f:N:L,A:2:32,4 # shader L1 instruction cache config  {<nsets>:<bsize>:<assoc>,<rep>:<wr>:<alloc>:<wr_alloc>,<mshr>:<N>:<merge>,<mq>} 
-gpgpu_cache:dl1     64:128:4,L:L:m:N:H,A:32:8,8 # per-shader L1 data cache config  {<nsets>:<bsize>:<assoc>,<rep>:<wr>:<alloc>:<wr_alloc>,<mshr>:<N>:<merge>,<mq> | none}
-gpgpu_cache:dl1PrefL1                 none # per-shader L1 data cache config  {<nsets>:<bsize>:<assoc>,<rep>:<wr>:<alloc>:<wr_alloc>,<mshr>:<N>:<merge>,<mq> | none}
-gpgpu_cache:dl1PreShared                 none # per-shader L1 data cache config  {<nsets>:<bsize>:<assoc>,<rep>:<wr>:<alloc>:<wr_alloc>,<mshr>:<N>:<merge>,<mq> | none}
-gmem_skip_L1D                          0 # global memory access skip L1D cache (implements -Xptxas -dlcm=cg, default=no skip)
-gpgpu_perfect_mem                      0 # enable perfect memory mode (no cache miss)
-n_regfile_gating_group                    4 # group of lanes that should be read/written together)
-gpgpu_clock_gated_reg_file                    0 # enable clock gated reg file for power calculations
-gpgpu_clock_gated_lanes                    0 # enable clock gated lanes for power calculations
-gpgpu_shader_registers                32768 # Number of registers per shader core. Limits number of concurrent CTAs. (default 8192)
-gpgpu_shader_cta                       8 # Maximum number of concurrent CTAs in shader (default 8)
-gpgpu_num_cta_barriers                   16 # Maximum number of named barriers per CTA (default 16)
-gpgpu_n_clusters                      15 # number of processing clusters
-gpgpu_n_cores_per_cluster                    1 # number of simd cores per cluster
-gpgpu_n_cluster_ejection_buffer_size                    8 # number of packets in ejection buffer
-gpgpu_n_ldst_response_buffer_size                    2 # number of response packets in ld/st unit ejection buffer
-gpgpu_shmem_size                   16384 # Size of shared memory per shader core (default 16kB)
-gpgpu_shmem_size                   49152 # Size of shared memory per shader core (default 16kB)
-gpgpu_shmem_size_PrefL1                16384 # Size of shared memory per shader core (default 16kB)
-gpgpu_shmem_size_PrefShared                16384 # Size of shared memory per shader core (default 16kB)
-gpgpu_shmem_num_banks                   32 # Number of banks in the shared memory in each shader core (default 16)
-gpgpu_shmem_limited_broadcast                    0 # Limit shared memory to do one broadcast per cycle (default on)
-gpgpu_shmem_warp_parts                    1 # Number of portions a warp is divided into for shared memory bank conflict check 
-gpgpu_warpdistro_shader                   -1 # Specify which shader core to collect the warp size distribution from
-gpgpu_warp_issue_shader                    0 # Specify which shader core to collect the warp issue distribution from
-gpgpu_local_mem_map                    1 # Mapping from local memory space address to simulated GPU physical address space (default = enabled)
-gpgpu_num_reg_banks                   16 # Number of register banks (default = 8)
-gpgpu_reg_bank_use_warp_id                    0 # Use warp ID in mapping registers to banks (default = off)
-gpgpu_operand_collector_num_units_sp                    6 # number of collector units (default = 4)
-gpgpu_operand_collector_num_units_sfu                    8 # number of collector units (default = 4)
-gpgpu_operand_collector_num_units_mem                    2 # number of collector units (default = 2)
-gpgpu_operand_collector_num_units_gen                    0 # number of collector units (default = 0)
-gpgpu_operand_collector_num_in_ports_sp                    2 # number of collector unit in ports (default = 1)
-gpgpu_operand_collector_num_in_ports_sfu                    1 # number of collector unit in ports (default = 1)
-gpgpu_operand_collector_num_in_ports_mem                    1 # number of collector unit in ports (default = 1)
-gpgpu_operand_collector_num_in_ports_gen                    0 # number of collector unit in ports (default = 0)
-gpgpu_operand_collector_num_out_ports_sp                    2 # number of collector unit in ports (default = 1)
-gpgpu_operand_collector_num_out_ports_sfu                    1 # number of collector unit in ports (default = 1)
-gpgpu_operand_collector_num_out_ports_mem                    1 # number of collector unit in ports (default = 1)
-gpgpu_operand_collector_num_out_ports_gen                    0 # number of collector unit in ports (default = 0)
-gpgpu_coalesce_arch                   13 # Coalescing arch (default = 13, anything else is off for now)
-gpgpu_num_sched_per_core                    2 # Number of warp schedulers per core
-gpgpu_max_insn_issue_per_warp                    1 # Max number of instructions that can be issued per warp in one cycle by scheduler
-gpgpu_simt_core_sim_order                    1 # Select the simulation order of cores in a cluster (0=Fix, 1=Round-Robin)
-gpgpu_pipeline_widths        2,1,1,2,1,1,2 # Pipeline widths ID_OC_SP,ID_OC_SFU,ID_OC_MEM,OC_EX_SP,OC_EX_SFU,OC_EX_MEM,EX_WB
-gpgpu_num_sp_units                     2 # Number of SP units (default=1)
-gpgpu_num_sfu_units                    1 # Number of SF units (default=1)
-gpgpu_num_mem_units                    1 # Number if ldst units (default=1) WARNING: not hooked up to anything
-gpgpu_scheduler                      gto # Scheduler configuration: < lrr | gto | two_level_active > If two_level_active:<num_active_warps>:<inner_prioritization>:<outer_prioritization>For complete list of prioritization values see shader.h enum scheduler_prioritization_typeDefault: gto
-gpgpu_dram_scheduler                    1 # 0 = fifo, 1 = FR-FCFS (defaul)
-gpgpu_dram_partition_queues              8:8:8:8 # i2$:$2d:d2$:$2i
-l2_ideal                               0 # Use a ideal L2 cache that always hit
-gpgpu_cache:dl2     64:128:8,L:B:m:W:L,A:32:4,4:0,32 # unified banked L2 data cache config  {<nsets>:<bsize>:<assoc>,<rep>:<wr>:<alloc>:<wr_alloc>,<mshr>:<N>:<merge>,<mq>}
-gpgpu_cache:dl2_texture_only                    0 # L2 cache used for texture only
-gpgpu_n_mem                            6 # number of memory modules (e.g. memory controllers) in gpu
-gpgpu_n_sub_partition_per_mchannel                    2 # number of memory subpartition in each memory module
-gpgpu_n_mem_per_ctrlr                    2 # number of memory chips per memory controller
-gpgpu_memlatency_stat                   14 # track and display latency statistics 0x2 enables MC, 0x4 enables queue logs
-gpgpu_frfcfs_dram_sched_queue_size                   16 # 0 = unlimited (default); # entries per chip
-gpgpu_dram_return_queue_size                  116 # 0 = unlimited (default); # entries per chip
-gpgpu_dram_buswidth                    4 # default = 4 bytes (8 bytes per cycle at DDR)
-gpgpu_dram_burst_length                    8 # Burst length of each DRAM request (default = 4 data bus cycle)
-dram_data_command_freq_ratio                    4 # Frequency ratio between DRAM data bus and command bus (default = 2 times, i.e. DDR)
-gpgpu_dram_timing_opt nbk=16:CCD=2:RRD=6:RCD=12:RAS=28:RP=12:RC=40: CL=12:WL=4:CDLR=5:WR=12:nbkgrp=4:CCDL=3:RTPL=2 # DRAM timing parameters = {nbk:tCCD:tRRD:tRCD:tRAS:tRP:tRC:CL:WL:tCDLR:tWR:nbkgrp:tCCDL:tRTPL}
-rop_latency                          120 # ROP queue latency (default 85)
-dram_latency                         100 # DRAM latency (default 30)
-gpgpu_mem_addr_mapping dramid@8;00000000.00000000.00000000.00000000.0000RRRR.RRRRRRRR.BBBCCCCB.CCSSSSSS # mapping memory address to dram model {dramid@<start bit>;<memory address map>}
-gpgpu_mem_addr_test                    0 # run sweep test to check address mapping for aliased address
-gpgpu_mem_address_mask                    1 # 0 = old addressing mask, 1 = new addressing mask, 2 = new add. mask + flipped bank sel and chip sel bits
-gpuwattch_xml_file  gpuwattch_gtx480.xml # GPUWattch XML file
-power_simulation_enabled                    0 # Turn on power simulator (1=On, 0=Off)
-power_per_cycle_dump                    0 # Dump detailed power output each cycle
-power_trace_enabled                    0 # produce a file for the power trace (1=On, 0=Off)
-power_trace_zlevel                     6 # Compression level of the power trace output log (0=no comp, 9=highest)
-steady_power_levels_enabled                    0 # produce a file for the steady power levels (1=On, 0=Off)
-steady_state_definition                  8:4 # allowed deviation:number of samples
-gpgpu_max_cycle                        0 # terminates gpu simulation early (0 = no limit)
-gpgpu_max_insn                         0 # terminates gpu simulation early (0 = no limit)
-gpgpu_max_cta                          0 # terminates gpu simulation early (0 = no limit)
-gpgpu_runtime_stat                   500 # display runtime statistics such as dram utilization {<freq>:<flag>}
-liveness_message_freq                    1 # Minimum number of seconds between simulation liveness messages (0 = always print)
-gpgpu_flush_l1_cache                    0 # Flush L1 cache at the end of each kernel call
-gpgpu_flush_l2_cache                    0 # Flush L2 cache at the end of each kernel call
-gpgpu_deadlock_detect                    1 # Stop the simulation at deadlock (1=on (default), 0=off)
-gpgpu_ptx_instruction_classification                    0 # if enabled will classify ptx instruction types per kernel (Max 255 kernels now)
-gpgpu_ptx_sim_mode                     0 # Select between Performance (default) or Functional simulation (1)
-gpgpu_clock_domains 700.0:700.0:700.0:924.0 # Clock Domain Frequencies in MhZ {<Core Clock>:<ICNT Clock>:<L2 Clock>:<DRAM Clock>}
-gpgpu_max_concurrent_kernel                    8 # maximum kernels that can run concurrently on GPU
-gpgpu_cflog_interval                    0 # Interval between each snapshot in control flow logger
-visualizer_enabled                     0 # Turn on visualizer output (1=On, 0=Off)
-visualizer_outputfile                 NULL # Specifies the output log file for visualizer
-visualizer_zlevel                      6 # Compression level of the visualizer output log (0=no comp, 9=highest)
-trace_enabled                          0 # Turn on traces
-trace_components                    none # comma seperated list of traces to enable. Complete list found in trace_streams.tup. Default none
-trace_sampling_core                    0 # The core which is printed using CORE_DPRINTF. Default 0
-trace_sampling_memory_partition                   -1 # The memory partition which is printed using MEMPART_DPRINTF. Default -1 (i.e. all)
-enable_ptx_file_line_stats                    1 # Turn on PTX source line statistic profiling. (1 = On)
-ptx_line_stats_filename gpgpu_inst_stats.txt # Output file for PTX source line statistics.
-save_embedded_ptx                      0 # saves ptx files embedded in binary as <n>.ptx
-keep                                   0 # keep intermediate files created by GPGPU-Sim when interfacing with external programs
-gpgpu_ptx_save_converted_ptxplus                    0 # Saved converted ptxplus to a file
-ptx_opcode_latency_int         4,13,4,5,145 # Opcode latencies for integers <ADD,MAX,MUL,MAD,DIV>Default 1,1,19,25,145
-ptx_opcode_latency_fp          4,13,4,5,39 # Opcode latencies for single precision floating points <ADD,MAX,MUL,MAD,DIV>Default 1,1,1,1,30
-ptx_opcode_latency_dp         8,19,8,8,330 # Opcode latencies for double precision floating points <ADD,MAX,MUL,MAD,DIV>Default 8,8,8,8,335
-ptx_opcode_initiation_int            1,2,2,1,8 # Opcode initiation intervals for integers <ADD,MAX,MUL,MAD,DIV>Default 1,1,4,4,32
-ptx_opcode_initiation_fp            1,2,1,1,4 # Opcode initiation intervals for single precision floating points <ADD,MAX,MUL,MAD,DIV>Default 1,1,1,1,5
-ptx_opcode_initiation_dp         8,16,8,8,130 # Opcode initiation intervals for double precision floating points <ADD,MAX,MUL,MAD,DIV>Default 8,8,8,8,130
DRAM Timing Options:
nbk                                    16 # number of banks
CCD                                     2 # column to column delay
RRD                                     6 # minimal delay between activation of rows in different banks
RCD                                    12 # row to column delay
RAS                                    28 # time needed to activate row
RP                                     12 # time needed to precharge (deactivate) row
RC                                     40 # row cycle time
CDLR                                    5 # switching from write to read (changes tWTR)
WR                                     12 # last data-in to row precharge
CL                                     12 # CAS latency
WL                                      4 # Write latency
nbkgrp                                  4 # number of bank groups
CCDL                                    3 # column to column delay between accesses to different bank groups
RTPL                                    2 # read to precharge delay between accesses to different bank groups
Total number of memory sub partition = 12
addr_dec_mask[CHIP]  = 0000000000000000 	high:64 low:0
addr_dec_mask[BK]    = 000000000000e100 	high:16 low:8
addr_dec_mask[ROW]   = 000000000fff0000 	high:28 low:16
addr_dec_mask[COL]   = 0000000000001eff 	high:13 low:0
addr_dec_mask[BURST] = 000000000000003f 	high:6 low:0
sub_partition_id_mask = 0000000000000100
GPGPU-Sim uArch: clock freqs: 700000000.000000:700000000.000000:700000000.000000:924000000.000000
GPGPU-Sim uArch: clock periods: 0.00000000142857142857:0.00000000142857142857:0.00000000142857142857:0.00000000108225108225
*** Initializing Memory Statistics ***
GPGPU-Sim uArch: interconnect node map (shaderID+MemID to icntID)
GPGPU-Sim uArch: Memory nodes ID start from index: 15
GPGPU-Sim uArch:    0   1   2   3   4
GPGPU-Sim uArch:    5   6   7   8   9
GPGPU-Sim uArch:   10  11  12  13  14
GPGPU-Sim uArch:   15  16  17  18  19
GPGPU-Sim uArch:   20  21  22  23  24
GPGPU-Sim uArch:   25  26
GPGPU-Sim uArch: interconnect node reverse map (icntID to shaderID+MemID)
GPGPU-Sim uArch: Memory nodes start from ID: 15
GPGPU-Sim uArch:    0   1   2   3   4
GPGPU-Sim uArch:    5   6   7   8   9
GPGPU-Sim uArch:   10  11  12  13  14
GPGPU-Sim uArch:   15  16  17  18  19
GPGPU-Sim uArch:   20  21  22  23  24
GPGPU-Sim uArch:   25  26
316bcbff5f8f022bb22b20bb4721e93e  /sciclone/data20/adwait/applications/benchmarks/CUDA/RAY/gpgpu_ptx_sim__RAY
GPGPU-Sim uArch: performance model initialization complete.
GPGPU-Sim PTX: __cudaRegisterFatBinary, fat_cubin_handle = 1, filename=rayTracing.cu
self exe links to: /sciclone/data20/adwait/applications/benchmarks/CUDA/RAY/gpgpu_ptx_sim__RAY
Running md5sum using "md5sum /sciclone/data20/adwait/applications/benchmarks/CUDA/RAY/gpgpu_ptx_sim__RAY "
Parsing file _cuobjdump_complete_output_NdKSyR
######### cuobjdump parser ########
## Adding new section ELF
Adding arch: sm_20
Adding identifier: rayTracing.cu
## Adding new section PTX
Adding ptx filename: _cuobjdump_1.ptx
Adding arch: sm_20
Adding identifier: rayTracing.cu
Done parsing!!!
GPGPU-Sim PTX: __cudaRegisterFunction _Z6renderPjP4Nodejjff : hostFun 0x0x40ce13, fat_cubin_handle = 1
GPGPU-Sim PTX: allocating stack frame region for .param "__cudaretf__Zmi6float3S_" from 0x0 to 0xc
GPGPU-Sim PTX: allocating stack frame region for .param "__cudaparmf1__Zmi6float3S_" from 0xc to 0x18
GPGPU-Sim PTX: allocating stack frame region for .param "__cudaparmf2__Zmi6float3S_" from 0x18 to 0x24
GPGPU-Sim PTX: allocating stack frame region for .param "__cudaretf__Z9normalize6float3" from 0x0 to 0xc
GPGPU-Sim PTX: allocating stack frame region for .param "__cudaparmf1__Z9normalize6float3" from 0xc to 0x18
GPGPU-Sim PTX: allocating stack frame region for .param "__cudaretf__Z18intersectionSphere5Rayon6float3f" from 0x0 to 0x4
GPGPU-Sim PTX: allocating stack frame region for .param "__cudaparmf1__Z18intersectionSphere5Rayon6float3f" from 0x4 to 0x1c
GPGPU-Sim PTX: allocating stack frame region for .param "__cudaparmf2__Z18intersectionSphere5Rayon6float3f" from 0x1c to 0x28
GPGPU-Sim PTX: allocating stack frame region for .param "__cudaparmf3__Z18intersectionSphere5Rayon6float3f" from 0x28 to 0x2c
GPGPU-Sim PTX: allocating stack frame region for .param "__cudaretf__Z16intersectionPlan5Rayon6float3S0_" from 0x0 to 0x4
GPGPU-Sim PTX: allocating stack frame region for .param "__cudaparmf1__Z16intersectionPlan5Rayon6float3S0_" from 0x4 to 0x1c
GPGPU-Sim PTX: allocating stack frame region for .param "__cudaparmf2__Z16intersectionPlan5Rayon6float3S0_" from 0x1c to 0x28
GPGPU-Sim PTX: allocating stack frame region for .param "__cudaparmf3__Z16intersectionPlan5Rayon6float3S0_" from 0x28 to 0x34
GPGPU-Sim PTX: allocating stack frame region for .param "__cudaretf__Z10getNormale6float3S_" from 0x0 to 0xc
GPGPU-Sim PTX: allocating stack frame region for .param "__cudaparmf1__Z10getNormale6float3S_" from 0xc to 0x18
GPGPU-Sim PTX: allocating stack frame region for .param "__cudaparmf2__Z10getNormale6float3S_" from 0x18 to 0x24
GPGPU-Sim PTX: allocating stack frame region for .param "__cudaretf__Z11getNormaleP6float3" from 0x0 to 0xc
GPGPU-Sim PTX: allocating stack frame region for .param "__cudaparmf1__Z11getNormaleP6float3" from 0xc to 0x18
GPGPU-Sim PTX: allocating stack frame region for .param "__cudaretf__Z14rgbaFloatToInt6float4" from 0x0 to 0x4
GPGPU-Sim PTX: allocating stack frame region for .param "__cudaparmf1__Z14rgbaFloatToInt6float4" from 0x4 to 0x14
GPGPU-Sim PTX: allocating stack frame region for .param "__cudaretf__Z12notShadowRayP4Node6float3S1_f" from 0x0 to 0x4
GPGPU-Sim PTX: allocating stack frame region for .param "__cudaparmf1__Z12notShadowRayP4Node6float3S1_f" from 0x4 to 0xc
GPGPU-Sim PTX: allocating stack frame region for .param "__cudaparmf2__Z12notShadowRayP4Node6float3S1_f" from 0xc to 0x18
GPGPU-Sim PTX: allocating stack frame region for .param "__cudaparmf3__Z12notShadowRayP4Node6float3S1_f" from 0x18 to 0x24
GPGPU-Sim PTX: allocating stack frame region for .param "__cudaparmf4__Z12notShadowRayP4Node6float3S1_f" from 0x24 to 0x28
GPGPU-Sim PTX: allocating stack frame region for .param "__cudaretf__Z15float2int_pow20f" from 0x0 to 0x4
GPGPU-Sim PTX: allocating stack frame region for .param "__cudaparmf1__Z15float2int_pow20f" from 0x4 to 0x8
GPGPU-Sim PTX: allocating stack frame region for .param "__cudaretf__Z15float2int_pow50f" from 0x0 to 0x4
GPGPU-Sim PTX: allocating stack frame region for .param "__cudaparmf1__Z15float2int_pow50f" from 0x4 to 0x8
GPGPU-Sim PTX: allocating stack frame region for .param "__cudaparmf1__ZN4dim3C1Ejjj" from 0x0 to 0x8
GPGPU-Sim PTX: allocating stack frame region for .param "__cudaparmf2__ZN4dim3C1Ejjj" from 0x8 to 0xc
GPGPU-Sim PTX: allocating stack frame region for .param "__cudaparmf3__ZN4dim3C1Ejjj" from 0xc to 0x10
GPGPU-Sim PTX: allocating stack frame region for .param "__cudaparmf4__ZN4dim3C1Ejjj" from 0x10 to 0x14
GPGPU-Sim PTX: instruction assembly for function '_Zmi6float3S_'...   done.
GPGPU-Sim PTX: finding reconvergence points for '_Zmi6float3S_'...
GPGPU-Sim PTX: Finding dominators for '_Zmi6float3S_'...
GPGPU-Sim PTX: Finding immediate dominators for '_Zmi6float3S_'...
GPGPU-Sim PTX: Finding postdominators for '_Zmi6float3S_'...
GPGPU-Sim PTX: Finding immediate postdominators for '_Zmi6float3S_'...
GPGPU-Sim PTX: pre-decoding instructions for '_Zmi6float3S_'...
GPGPU-Sim PTX: reconvergence points for _Zmi6float3S_...
GPGPU-Sim PTX: ... end of reconvergence points for _Zmi6float3S_
GPGPU-Sim PTX: ... done pre-decoding instructions for '_Zmi6float3S_'.
GPGPU-Sim PTX: instruction assembly for function '_Z9normalize6float3'...   done.
GPGPU-Sim PTX: finding reconvergence points for '_Z9normalize6float3'...
GPGPU-Sim PTX: Finding dominators for '_Z9normalize6float3'...
GPGPU-Sim PTX: Finding immediate dominators for '_Z9normalize6float3'...
GPGPU-Sim PTX: Finding postdominators for '_Z9normalize6float3'...
GPGPU-Sim PTX: Finding immediate postdominators for '_Z9normalize6float3'...
GPGPU-Sim PTX: pre-decoding instructions for '_Z9normalize6float3'...
GPGPU-Sim PTX: reconvergence points for _Z9normalize6float3...
GPGPU-Sim PTX: ... end of reconvergence points for _Z9normalize6float3
GPGPU-Sim PTX: ... done pre-decoding instructions for '_Z9normalize6float3'.
GPGPU-Sim PTX: instruction assembly for function '_Z18intersectionSphere5Rayon6float3f'...   done.
GPGPU-Sim PTX: finding reconvergence points for '_Z18intersectionSphere5Rayon6float3f'...
GPGPU-Sim PTX: Finding dominators for '_Z18intersectionSphere5Rayon6float3f'...
GPGPU-Sim PTX: Finding immediate dominators for '_Z18intersectionSphere5Rayon6float3f'...
GPGPU-Sim PTX: Finding postdominators for '_Z18intersectionSphere5Rayon6float3f'...
GPGPU-Sim PTX: Finding immediate postdominators for '_Z18intersectionSphere5Rayon6float3f'...
GPGPU-Sim PTX: pre-decoding instructions for '_Z18intersectionSphere5Rayon6float3f'...
GPGPU-Sim PTX: reconvergence points for _Z18intersectionSphere5Rayon6float3f...
GPGPU-Sim PTX:  1 (potential) branch divergence @  PC=0x250 (_1.ptx:173) @%p2 bra $Lt_2_3074;
GPGPU-Sim PTX:    immediate post dominator      @  PC=0x2c0 (_1.ptx:193) mov.f32 %f39, %f32;
GPGPU-Sim PTX:  2 (potential) branch divergence @  PC=0x260 (_1.ptx:175) bra.uni $Lt_2_2818;
GPGPU-Sim PTX:    immediate post dominator      @  PC=0x2c0 (_1.ptx:193) mov.f32 %f39, %f32;
GPGPU-Sim PTX:  3 (potential) branch divergence @  PC=0x280 (_1.ptx:180) @!%p3 bra $Lt_2_3586;
GPGPU-Sim PTX:    immediate post dominator      @  PC=0x2c0 (_1.ptx:193) mov.f32 %f39, %f32;
GPGPU-Sim PTX:  4 (potential) branch divergence @  PC=0x290 (_1.ptx:182) bra.uni $Lt_2_3330;
GPGPU-Sim PTX:    immediate post dominator      @  PC=0x2c0 (_1.ptx:193) mov.f32 %f39, %f32;
GPGPU-Sim PTX: ... end of reconvergence points for _Z18intersectionSphere5Rayon6float3f
GPGPU-Sim PTX: ... done pre-decoding instructions for '_Z18intersectionSphere5Rayon6float3f'.
GPGPU-Sim PTX: instruction assembly for function '_Z16intersectionPlan5Rayon6float3S0_'...   done.
GPGPU-Sim PTX: finding reconvergence points for '_Z16intersectionPlan5Rayon6float3S0_'...
GPGPU-Sim PTX: Finding dominators for '_Z16intersectionPlan5Rayon6float3S0_'...
GPGPU-Sim PTX: Finding immediate dominators for '_Z16intersectionPlan5Rayon6float3S0_'...
GPGPU-Sim PTX: Finding postdominators for '_Z16intersectionPlan5Rayon6float3S0_'...
GPGPU-Sim PTX: Finding immediate postdominators for '_Z16intersectionPlan5Rayon6float3S0_'...
GPGPU-Sim PTX: pre-decoding instructions for '_Z16intersectionPlan5Rayon6float3S0_'...
GPGPU-Sim PTX: reconvergence points for _Z16intersectionPlan5Rayon6float3S0_...
GPGPU-Sim PTX:  1 (potential) branch divergence @  PC=0x320 (_1.ptx:214) @!%p1 bra $Lt_3_2050;
GPGPU-Sim PTX:    immediate post dominator      @  PC=0x368 (_1.ptx:227) mov.f32 %f14, %f9;
GPGPU-Sim PTX:  2 (potential) branch divergence @  PC=0x330 (_1.ptx:216) bra.uni $Lt_3_1794;
GPGPU-Sim PTX:    immediate post dominator      @  PC=0x368 (_1.ptx:227) mov.f32 %f14, %f9;
GPGPU-Sim PTX: ... end of reconvergence points for _Z16intersectionPlan5Rayon6float3S0_
GPGPU-Sim PTX: ... done pre-decoding instructions for '_Z16intersectionPlan5Rayon6float3S0_'.
GPGPU-Sim PTX: instruction assembly for function '_Z10getNormale6float3S_'...   done.
GPGPU-Sim PTX: finding reconvergence points for '_Z10getNormale6float3S_'...
GPGPU-Sim PTX: Finding dominators for '_Z10getNormale6float3S_'...
GPGPU-Sim PTX: Finding immediate dominators for '_Z10getNormale6float3S_'...
GPGPU-Sim PTX: Finding postdominators for '_Z10getNormale6float3S_'...
GPGPU-Sim PTX: Finding immediate postdominators for '_Z10getNormale6float3S_'...
GPGPU-Sim PTX: pre-decoding instructions for '_Z10getNormale6float3S_'...
GPGPU-Sim PTX: reconvergence points for _Z10getNormale6float3S_...
GPGPU-Sim PTX: ... end of reconvergence points for _Z10getNormale6float3S_
GPGPU-Sim PTX: ... done pre-decoding instructions for '_Z10getNormale6float3S_'.
GPGPU-Sim PTX: instruction assembly for function '_Z11getNormaleP6float3'...   done.
GPGPU-Sim PTX: finding reconvergence points for '_Z11getNormaleP6float3'...
GPGPU-Sim PTX: Finding dominators for '_Z11getNormaleP6float3'...
GPGPU-Sim PTX: Finding immediate dominators for '_Z11getNormaleP6float3'...
GPGPU-Sim PTX: Finding postdominators for '_Z11getNormaleP6float3'...
GPGPU-Sim PTX: Finding immediate postdominators for '_Z11getNormaleP6float3'...
GPGPU-Sim PTX: pre-decoding instructions for '_Z11getNormaleP6float3'...
GPGPU-Sim PTX: reconvergence points for _Z11getNormaleP6float3...
GPGPU-Sim PTX: ... end of reconvergence points for _Z11getNormaleP6float3
GPGPU-Sim PTX: ... done pre-decoding instructions for '_Z11getNormaleP6float3'.
GPGPU-Sim PTX: instruction assembly for function '_Z14rgbaFloatToInt6float4'...   done.
GPGPU-Sim PTX: finding reconvergence points for '_Z14rgbaFloatToInt6float4'...
GPGPU-Sim PTX: Finding dominators for '_Z14rgbaFloatToInt6float4'...
GPGPU-Sim PTX: Finding immediate dominators for '_Z14rgbaFloatToInt6float4'...
GPGPU-Sim PTX: Finding postdominators for '_Z14rgbaFloatToInt6float4'...
GPGPU-Sim PTX: Finding immediate postdominators for '_Z14rgbaFloatToInt6float4'...
GPGPU-Sim PTX: pre-decoding instructions for '_Z14rgbaFloatToInt6float4'...
GPGPU-Sim PTX: reconvergence points for _Z14rgbaFloatToInt6float4...
GPGPU-Sim PTX: ... end of reconvergence points for _Z14rgbaFloatToInt6float4
GPGPU-Sim PTX: ... done pre-decoding instructions for '_Z14rgbaFloatToInt6float4'.
GPGPU-Sim PTX: allocating global region for "cnode" from 0x100 to 0x1a0 (global memory space)
GPGPU-Sim PTX: instruction assembly for function '_Z12notShadowRayP4Node6float3S1_f'...   done.
GPGPU-Sim PTX: finding reconvergence points for '_Z12notShadowRayP4Node6float3S1_f'...
GPGPU-Sim PTX: Finding dominators for '_Z12notShadowRayP4Node6float3S1_f'...
GPGPU-Sim PTX: Finding immediate dominators for '_Z12notShadowRayP4Node6float3S1_f'...
GPGPU-Sim PTX: Finding postdominators for '_Z12notShadowRayP4Node6float3S1_f'...
GPGPU-Sim PTX: Finding immediate postdominators for '_Z12notShadowRayP4Node6float3S1_f'...
GPGPU-Sim PTX: pre-decoding instructions for '_Z12notShadowRayP4Node6float3S1_f'...
GPGPU-Sim PTX: reconvergence points for _Z12notShadowRayP4Node6float3S1_f...
GPGPU-Sim PTX:  1 (potential) branch divergence @  PC=0x638 (_1.ptx:364) @%p1 bra $Lt_7_8450;
GPGPU-Sim PTX:    immediate post dominator      @  PC=0x828 (_1.ptx:441) mov.f32 %f58, 0f00000000;    // 0
GPGPU-Sim PTX:  2 (potential) branch divergence @  PC=0x658 (_1.ptx:369) @!%p2 bra $Lt_7_8962;
GPGPU-Sim PTX:    immediate post dominator      @  PC=0x6b8 (_1.ptx:385) mov.f32 %f28, %f20;
GPGPU-Sim PTX:  3 (potential) branch divergence @  PC=0x668 (_1.ptx:371) bra.uni $Lt_7_8706;
GPGPU-Sim PTX:    immediate post dominator      @  PC=0x6b8 (_1.ptx:385) mov.f32 %f28, %f20;
GPGPU-Sim PTX:  4 (potential) branch divergence @  PC=0x6c0 (_1.ptx:386) bra.uni $Lt_7_8194;
GPGPU-Sim PTX:    immediate post dominator      @  PC=0x828 (_1.ptx:441) mov.f32 %f58, 0f00000000;    // 0
GPGPU-Sim PTX:  5 (potential) branch divergence @  PC=0x7b0 (_1.ptx:418) @%p5 bra $Lt_7_9474;
GPGPU-Sim PTX:    immediate post dominator      @  PC=0x820 (_1.ptx:438) mov.f32 %f28, %f51;
GPGPU-Sim PTX:  6 (potential) branch divergence @  PC=0x7c0 (_1.ptx:420) bra.uni $Lt_7_9730;
GPGPU-Sim PTX:    immediate post dominator      @  PC=0x820 (_1.ptx:438) mov.f32 %f28, %f51;
GPGPU-Sim PTX:  7 (potential) branch divergence @  PC=0x7e0 (_1.ptx:425) @!%p6 bra $Lt_7_9986;
GPGPU-Sim PTX:    immediate post dominator      @  PC=0x820 (_1.ptx:438) mov.f32 %f28, %f51;
GPGPU-Sim PTX:  8 (potential) branch divergence @  PC=0x7f0 (_1.ptx:427) bra.uni $Lt_7_9730;
GPGPU-Sim PTX:    immediate post dominator      @  PC=0x820 (_1.ptx:438) mov.f32 %f28, %f51;
GPGPU-Sim PTX:  9 (potential) branch divergence @  PC=0x838 (_1.ptx:443) @!%p7 bra $Lt_7_10242;
GPGPU-Sim PTX:    immediate post dominator      @  PC=0x8e8 (_1.ptx:468) add.s32 %r1, %r1, 1;
GPGPU-Sim PTX: 10 (potential) branch divergence @  PC=0x8d8 (_1.ptx:463) @!%p8 bra $Lt_7_10242;
GPGPU-Sim PTX:    immediate post dominator      @  PC=0x8e8 (_1.ptx:468) add.s32 %r1, %r1, 1;
GPGPU-Sim PTX: 11 (potential) branch divergence @  PC=0x908 (_1.ptx:472) @%p9 bra $Lt_7_10754;
GPGPU-Sim PTX:    immediate post dominator      @  PC=0x960 (_1.ptx:486) selp.s32 %r10, 1, 0, %p11;
GPGPU-Sim PTX: 12 (potential) branch divergence @  PC=0x930 (_1.ptx:477) @%p10 bra $L_7_7170;
GPGPU-Sim PTX:    immediate post dominator      @  PC=0x960 (_1.ptx:486) selp.s32 %r10, 1, 0, %p11;
GPGPU-Sim PTX: 13 (potential) branch divergence @  PC=0x938 (_1.ptx:478) bra.uni $L_7_7938;
GPGPU-Sim PTX:    immediate post dominator      @  PC=0x960 (_1.ptx:486) selp.s32 %r10, 1, 0, %p11;
GPGPU-Sim PTX: ... end of reconvergence points for _Z12notShadowRayP4Node6float3S1_f
GPGPU-Sim PTX: ... done pre-decoding instructions for '_Z12notShadowRayP4Node6float3S1_f'.
GPGPU-Sim PTX: instruction assembly for function '_Z15float2int_pow20f'...   done.
GPGPU-Sim PTX: finding reconvergence points for '_Z15float2int_pow20f'...
GPGPU-Sim PTX: Finding dominators for '_Z15float2int_pow20f'...
GPGPU-Sim PTX: Finding immediate dominators for '_Z15float2int_pow20f'...
GPGPU-Sim PTX: Finding postdominators for '_Z15float2int_pow20f'...
GPGPU-Sim PTX: Finding immediate postdominators for '_Z15float2int_pow20f'...
GPGPU-Sim PTX: pre-decoding instructions for '_Z15float2int_pow20f'...
GPGPU-Sim PTX: reconvergence points for _Z15float2int_pow20f...
GPGPU-Sim PTX: ... end of reconvergence points for _Z15float2int_pow20f
GPGPU-Sim PTX: ... done pre-decoding instructions for '_Z15float2int_pow20f'.
GPGPU-Sim PTX: instruction assembly for function '_Z15float2int_pow50f'...   done.
GPGPU-Sim PTX: finding reconvergence points for '_Z15float2int_pow50f'...
GPGPU-Sim PTX: Finding dominators for '_Z15float2int_pow50f'...
GPGPU-Sim PTX: Finding immediate dominators for '_Z15float2int_pow50f'...
GPGPU-Sim PTX: Finding postdominators for '_Z15float2int_pow50f'...
GPGPU-Sim PTX: Finding immediate postdominators for '_Z15float2int_pow50f'...
GPGPU-Sim PTX: pre-decoding instructions for '_Z15float2int_pow50f'...
GPGPU-Sim PTX: reconvergence points for _Z15float2int_pow50f...
GPGPU-Sim PTX: ... end of reconvergence points for _Z15float2int_pow50f
GPGPU-Sim PTX: ... done pre-decoding instructions for '_Z15float2int_pow50f'.
GPGPU-Sim PTX: allocating constant region for "MView" from 0x200 to 0x230 (global memory space) 1
GPGPU-Sim PTX: allocating stack frame region for .local "__cuda___cuda_local_var_35463_9_non_const_pile_32240" from 0x0 to 0x50
GPGPU-Sim PTX: instruction assembly for function '_Z6renderPjP4Nodejjff'...   done.
GPGPU-Sim PTX: finding reconvergence points for '_Z6renderPjP4Nodejjff'...
GPGPU-Sim PTX: Finding dominators for '_Z6renderPjP4Nodejjff'...
GPGPU-Sim PTX: Finding immediate dominators for '_Z6renderPjP4Nodejjff'...
GPGPU-Sim PTX: Finding postdominators for '_Z6renderPjP4Nodejjff'...
GPGPU-Sim PTX: Finding immediate postdominators for '_Z6renderPjP4Nodejjff'...
GPGPU-Sim PTX: pre-decoding instructions for '_Z6renderPjP4Nodejjff'...
GPGPU-Sim PTX: reconvergence points for _Z6renderPjP4Nodejjff...
GPGPU-Sim PTX:  1 (potential) branch divergence @  PC=0xdb0 (_1.ptx:663) @%p1 bra $Lt_10_44034;
GPGPU-Sim PTX:    immediate post dominator      @  PC=0x2370 (_1.ptx:1495) exit;
GPGPU-Sim PTX:  2 (potential) branch divergence @  PC=0x1028 (_1.ptx:751) @%p2 bra $Lt_10_45570;
GPGPU-Sim PTX:    immediate post dominator      @  PC=0x11b8 (_1.ptx:815) mov.f32 %f108, 0f00000000;   // 0
GPGPU-Sim PTX:  3 (potential) branch divergence @  PC=0x1048 (_1.ptx:756) @!%p3 bra $Lt_10_46082;
GPGPU-Sim PTX:    immediate post dominator      @  PC=0x1090 (_1.ptx:769) mov.f32 %f87, %f82;
GPGPU-Sim PTX:  4 (potential) branch divergence @  PC=0x1058 (_1.ptx:758) bra.uni $Lt_10_45826;
GPGPU-Sim PTX:    immediate post dominator      @  PC=0x1090 (_1.ptx:769) mov.f32 %f87, %f82;
GPGPU-Sim PTX:  5 (potential) branch divergence @  PC=0x1098 (_1.ptx:770) bra.uni $Lt_10_45314;
GPGPU-Sim PTX:    immediate post dominator      @  PC=0x11b8 (_1.ptx:815) mov.f32 %f108, 0f00000000;   // 0
GPGPU-Sim PTX:  6 (potential) branch divergence @  PC=0x1140 (_1.ptx:793) @%p6 bra $Lt_10_46594;
GPGPU-Sim PTX:    immediate post dominator      @  PC=0x11b0 (_1.ptx:813) mov.f32 %f87, %f101;
GPGPU-Sim PTX:  7 (potential) branch divergence @  PC=0x1150 (_1.ptx:795) bra.uni $Lt_10_46850;
GPGPU-Sim PTX:    immediate post dominator      @  PC=0x11b0 (_1.ptx:813) mov.f32 %f87, %f101;
GPGPU-Sim PTX:  8 (potential) branch divergence @  PC=0x1170 (_1.ptx:800) @!%p7 bra $Lt_10_47106;
GPGPU-Sim PTX:    immediate post dominator      @  PC=0x11b0 (_1.ptx:813) mov.f32 %f87, %f101;
GPGPU-Sim PTX:  9 (potential) branch divergence @  PC=0x1180 (_1.ptx:802) bra.uni $Lt_10_46850;
GPGPU-Sim PTX:    immediate post dominator      @  PC=0x11b0 (_1.ptx:813) mov.f32 %f87, %f101;
GPGPU-Sim PTX: 10 (potential) branch divergence @  PC=0x11f8 (_1.ptx:823) @%p8 bra $Lt_10_47362;
GPGPU-Sim PTX:    immediate post dominator      @  PC=0x1210 (_1.ptx:829) add.s32 %r25, %r25, 1;
GPGPU-Sim PTX: 11 (potential) branch divergence @  PC=0x1230 (_1.ptx:833) @%p9 bra $Lt_10_45058;
GPGPU-Sim PTX:    immediate post dominator      @  PC=0x1238 (_1.ptx:834) mov.f32 %f109, 0f00000000;   // 0
GPGPU-Sim PTX: 12 (potential) branch divergence @  PC=0x1280 (_1.ptx:843) @%p10 bra $Lt_10_48130;
GPGPU-Sim PTX:    immediate post dominator      @  PC=0x2140 (_1.ptx:1416) add.s32 %r23, %r23, 1;
GPGPU-Sim PTX: 13 (potential) branch divergence @  PC=0x1330 (_1.ptx:868) @%p11 bra $Lt_10_48898;
GPGPU-Sim PTX:    immediate post dominator      @  PC=0x13b8 (_1.ptx:888) sub.f32 %f136, %f21, %f119;
GPGPU-Sim PTX: 14 (potential) branch divergence @  PC=0x1350 (_1.ptx:873) bra.uni $Lt_10_48642;
GPGPU-Sim PTX:    immediate post dominator      @  PC=0x13b8 (_1.ptx:888) sub.f32 %f136, %f21, %f119;
GPGPU-Sim PTX: 15 (potential) branch divergence @  PC=0x1430 (_1.ptx:903) @!%p12 bra $Lt_10_49410;
GPGPU-Sim PTX:    immediate post dominator      @  PC=0x1470 (_1.ptx:915) mov.f32 %f153, 0f3d4ccccd;   // 0.05
GPGPU-Sim PTX: 16 (potential) branch divergence @  PC=0x1450 (_1.ptx:908) bra.uni $Lt_10_49154;
GPGPU-Sim PTX:    immediate post dominator      @  PC=0x1470 (_1.ptx:915) mov.f32 %f153, 0f3d4ccccd;   // 0.05
GPGPU-Sim PTX: 17 (potential) branch divergence @  PC=0x1578 (_1.ptx:949) @!%p13 bra $Lt_10_58114;
GPGPU-Sim PTX:    immediate post dominator      @  PC=0x2080 (_1.ptx:1388) add.f32 %f399, %f126, %f126;
GPGPU-Sim PTX: 18 (potential) branch divergence @  PC=0x15c0 (_1.ptx:961) @%p14 bra $Lt_10_49922;
GPGPU-Sim PTX:    immediate post dominator      @  PC=0x17b0 (_1.ptx:1039) mov.f32 %f221, 0f00000000;   // 0
GPGPU-Sim PTX: 19 (potential) branch divergence @  PC=0x15e0 (_1.ptx:966) @!%p15 bra $Lt_10_50434;
GPGPU-Sim PTX:    immediate post dominator      @  PC=0x1638 (_1.ptx:982) mov.f32 %f190, %f183;
GPGPU-Sim PTX: 20 (potential) branch divergence @  PC=0x15f0 (_1.ptx:968) bra.uni $Lt_10_50178;
GPGPU-Sim PTX:    immediate post dominator      @  PC=0x1638 (_1.ptx:982) mov.f32 %f190, %f183;
GPGPU-Sim PTX: 21 (potential) branch divergence @  PC=0x1640 (_1.ptx:983) bra.uni $Lt_10_49666;
GPGPU-Sim PTX:    immediate post dominator      @  PC=0x17b0 (_1.ptx:1039) mov.f32 %f221, 0f00000000;   // 0
GPGPU-Sim PTX: 22 (potential) branch divergence @  PC=0x1738 (_1.ptx:1016) @%p18 bra $Lt_10_50946;
GPGPU-Sim PTX:    immediate post dominator      @  PC=0x17a8 (_1.ptx:1036) mov.f32 %f190, %f214;
GPGPU-Sim PTX: 23 (potential) branch divergence @  PC=0x1748 (_1.ptx:1018) bra.uni $Lt_10_51202;
GPGPU-Sim PTX:    immediate post dominator      @  PC=0x17a8 (_1.ptx:1036) mov.f32 %f190, %f214;
GPGPU-Sim PTX: 24 (potential) branch divergence @  PC=0x1768 (_1.ptx:1023) @!%p19 bra $Lt_10_51458;
GPGPU-Sim PTX:    immediate post dominator      @  PC=0x17a8 (_1.ptx:1036) mov.f32 %f190, %f214;
GPGPU-Sim PTX: 25 (potential) branch divergence @  PC=0x1778 (_1.ptx:1025) bra.uni $Lt_10_51202;
GPGPU-Sim PTX:    immediate post dominator      @  PC=0x17a8 (_1.ptx:1036) mov.f32 %f190, %f214;
GPGPU-Sim PTX: 26 (potential) branch divergence @  PC=0x17c0 (_1.ptx:1041) @!%p20 bra $Lt_10_58370;
GPGPU-Sim PTX:    immediate post dominator      @  PC=0x1828 (_1.ptx:1057) add.s32 %r50, %r50, 1;
GPGPU-Sim PTX: 27 (potential) branch divergence @  PC=0x1818 (_1.ptx:1052) @!%p21 bra $Lt_10_58370;
GPGPU-Sim PTX:    immediate post dominator      @  PC=0x1828 (_1.ptx:1057) add.s32 %r50, %r50, 1;
GPGPU-Sim PTX: 28 (potential) branch divergence @  PC=0x1848 (_1.ptx:1061) @%p22 bra $Lt_10_58882;
GPGPU-Sim PTX:    immediate post dominator      @  PC=0x1880 (_1.ptx:1071) @!%p23 bra $Lt_10_58114;
GPGPU-Sim PTX: 29 (potential) branch divergence @  PC=0x1860 (_1.ptx:1064) @%p23 bra $L_10_42498;
GPGPU-Sim PTX:    immediate post dominator      @  PC=0x1880 (_1.ptx:1071) @!%p23 bra $Lt_10_58114;
GPGPU-Sim PTX: 30 (potential) branch divergence @  PC=0x1868 (_1.ptx:1065) bra.uni $L_10_43266;
GPGPU-Sim PTX:    immediate post dominator      @  PC=0x1880 (_1.ptx:1071) @!%p23 bra $Lt_10_58114;
GPGPU-Sim PTX: 31 (potential) branch divergence @  PC=0x1880 (_1.ptx:1071) @!%p23 bra $Lt_10_58114;
GPGPU-Sim PTX:    immediate post dominator      @  PC=0x2080 (_1.ptx:1388) add.f32 %f399, %f126, %f126;
GPGPU-Sim PTX: 32 (potential) branch divergence @  PC=0x19c8 (_1.ptx:1115) @!%p24 bra $Lt_10_51714;
GPGPU-Sim PTX:    immediate post dominator      @  PC=0x2040 (_1.ptx:1375) mov.f32 %f394, 0f3f4ccccd;   // 0.8
GPGPU-Sim PTX: 33 (potential) branch divergence @  PC=0x19d8 (_1.ptx:1118) bra.uni $LDWendi___isnanf_192_1;
GPGPU-Sim PTX:    immediate post dominator      @  PC=0x2040 (_1.ptx:1375) mov.f32 %f394, 0f3f4ccccd;   // 0.8
GPGPU-Sim PTX: 34 (potential) branch divergence @  PC=0x19f8 (_1.ptx:1124) @!%p25 bra $Lt_10_7682;
GPGPU-Sim PTX:    immediate post dominator      @  PC=0x2040 (_1.ptx:1375) mov.f32 %f394, 0f3f4ccccd;   // 0.8
GPGPU-Sim PTX: 35 (potential) branch divergence @  PC=0x1a00 (_1.ptx:1125) bra.uni $Lt_10_7938;
GPGPU-Sim PTX:    immediate post dominator      @  PC=0x1a20 (_1.ptx:1133) mov.f32 %f272, 0f7f800000;   // ((1.0F)/(0.0F))
GPGPU-Sim PTX: 36 (potential) branch divergence @  PC=0x1a18 (_1.ptx:1130) bra.uni $LDWendi___isnanf_192_1;
GPGPU-Sim PTX:    immediate post dominator      @  PC=0x2040 (_1.ptx:1375) mov.f32 %f394, 0f3f4ccccd;   // 0.8
GPGPU-Sim PTX: 37 (potential) branch divergence @  PC=0x1a30 (_1.ptx:1135) @!%p26 bra $Lt_10_52226;
GPGPU-Sim PTX:    immediate post dominator      @  PC=0x2040 (_1.ptx:1375) mov.f32 %f394, 0f3f4ccccd;   // 0.8
GPGPU-Sim PTX: 38 (potential) branch divergence @  PC=0x1a40 (_1.ptx:1138) bra.uni $LDWendi___isnanf_192_1;
GPGPU-Sim PTX:    immediate post dominator      @  PC=0x2040 (_1.ptx:1375) mov.f32 %f394, 0f3f4ccccd;   // 0.8
GPGPU-Sim PTX: 39 (potential) branch divergence @  PC=0x1a58 (_1.ptx:1142) @!%p27 bra $Lt_10_52738;
GPGPU-Sim PTX:    immediate post dominator      @  PC=0x2040 (_1.ptx:1375) mov.f32 %f394, 0f3f4ccccd;   // 0.8
GPGPU-Sim PTX: 40 (potential) branch divergence @  PC=0x1ab8 (_1.ptx:1155) bra.uni $LDWendi___isnanf_192_1;
GPGPU-Sim PTX:    immediate post dominator      @  PC=0x2040 (_1.ptx:1375) mov.f32 %f394, 0f3f4ccccd;   // 0.8
GPGPU-Sim PTX: 41 (potential) branch divergence @  PC=0x1ad0 (_1.ptx:1159) @!%p29 bra $Lt_10_53250;
GPGPU-Sim PTX:    immediate post dominator      @  PC=0x2040 (_1.ptx:1375) mov.f32 %f394, 0f3f4ccccd;   // 0.8
GPGPU-Sim PTX: 42 (potential) branch divergence @  PC=0x1b20 (_1.ptx:1170) @!%p30 bra $Lt_10_53762;
GPGPU-Sim PTX:    immediate post dominator      @  PC=0x1b40 (_1.ptx:1177) mov.f32 %f268, %f284;
GPGPU-Sim PTX: 43 (potential) branch divergence @  PC=0x1b48 (_1.ptx:1178) bra.uni $LDWendi___isnanf_192_1;
GPGPU-Sim PTX:    immediate post dominator      @  PC=0x2040 (_1.ptx:1375) mov.f32 %f394, 0f3f4ccccd;   // 0.8
GPGPU-Sim PTX: 44 (potential) branch divergence @  PC=0x1b60 (_1.ptx:1183) @!%p31 bra $Lt_10_59394;
GPGPU-Sim PTX:    immediate post dominator      @  PC=0x2040 (_1.ptx:1375) mov.f32 %f394, 0f3f4ccccd;   // 0.8
GPGPU-Sim PTX: 45 (potential) branch divergence @  PC=0x1b88 (_1.ptx:1188) @!%p32 bra $Lt_10_59394;
GPGPU-Sim PTX:    immediate post dominator      @  PC=0x2040 (_1.ptx:1375) mov.f32 %f394, 0f3f4ccccd;   // 0.8
GPGPU-Sim PTX: 46 (potential) branch divergence @  PC=0x1ba0 (_1.ptx:1192) bra.uni $LDWendi___isnanf_192_1;
GPGPU-Sim PTX:    immediate post dominator      @  PC=0x2040 (_1.ptx:1375) mov.f32 %f394, 0f3f4ccccd;   // 0.8
GPGPU-Sim PTX: 47 (potential) branch divergence @  PC=0x1bd8 (_1.ptx:1202) @%p33 bra $Lt_10_54530;
GPGPU-Sim PTX:    immediate post dominator      @  PC=0x1c20 (_1.ptx:1216) sub.s32 %r64, %r64, 127;
GPGPU-Sim PTX: 48 (potential) branch divergence @  PC=0x1c10 (_1.ptx:1211) bra.uni $Lt_10_54274;
GPGPU-Sim PTX:    immediate post dominator      @  PC=0x1c20 (_1.ptx:1216) sub.s32 %r64, %r64, 127;
GPGPU-Sim PTX: 49 (potential) branch divergence @  PC=0x1c58 (_1.ptx:1224) @!%p34 bra $Lt_10_54786;
GPGPU-Sim PTX:    immediate post dominator      @  PC=0x1c78 (_1.ptx:1232) mov.f32 %f302, 0fbf800000;   // -1
GPGPU-Sim PTX: 50 (potential) branch divergence @  PC=0x1eb0 (_1.ptx:1312) @%p35 bra $Lt_10_55298;
GPGPU-Sim PTX:    immediate post dominator      @  PC=0x1ed8 (_1.ptx:1321) mov.f32 %f367, %f365;
GPGPU-Sim PTX: 51 (potential) branch divergence @  PC=0x1f98 (_1.ptx:1346) @!%p38 bra $Lt_10_55810;
GPGPU-Sim PTX:    immediate post dominator      @  PC=0x1fa8 (_1.ptx:1351) mov.f32 %f284, %f386;
GPGPU-Sim PTX: 52 (potential) branch divergence @  PC=0x2018 (_1.ptx:1365) @%p39 bra $Lt_10_56322;
GPGPU-Sim PTX:    immediate post dominator      @  PC=0x2038 (_1.ptx:1372) mov.f32 %f268, %f284;
GPGPU-Sim PTX: 53 (potential) branch divergence @  PC=0x2158 (_1.ptx:1419) @%p40 bra $L_10_42242;
GPGPU-Sim PTX:    immediate post dominator      @  PC=0x2170 (_1.ptx:1424) sub.s32 %r86, %r24, 1;
GPGPU-Sim PTX: 54 (potential) branch divergence @  PC=0x2168 (_1.ptx:1421) @%p41 bra $L_10_41474;
GPGPU-Sim PTX:    immediate post dominator      @  PC=0x2170 (_1.ptx:1424) sub.s32 %r86, %r24, 1;
GPGPU-Sim PTX: 55 (potential) branch divergence @  PC=0x2190 (_1.ptx:1428) @%p42 bra $Lt_10_56834;
GPGPU-Sim PTX:    immediate post dominator      @  PC=0x2288 (_1.ptx:1464) ld.global.u32 %r92, [%rd4+0];
GPGPU-Sim PTX: 56 (potential) branch divergence @  PC=0x2280 (_1.ptx:1461) @%p43 bra $Lt_10_57346;
GPGPU-Sim PTX:    immediate post dominator      @  PC=0x2288 (_1.ptx:1464) ld.global.u32 %r92, [%rd4+0];
GPGPU-Sim PTX: ... end of reconvergence points for _Z6renderPjP4Nodejjff
GPGPU-Sim PTX: ... done pre-decoding instructions for '_Z6renderPjP4Nodejjff'.
GPGPU-Sim PTX: instruction assembly for function '_ZN4dim3C1Ejjj'...   done.
GPGPU-Sim PTX: finding reconvergence points for '_ZN4dim3C1Ejjj'...
GPGPU-Sim PTX: Finding dominators for '_ZN4dim3C1Ejjj'...
GPGPU-Sim PTX: Finding immediate dominators for '_ZN4dim3C1Ejjj'...
GPGPU-Sim PTX: Finding postdominators for '_ZN4dim3C1Ejjj'...
GPGPU-Sim PTX: Finding immediate postdominators for '_ZN4dim3C1Ejjj'...
GPGPU-Sim PTX: pre-decoding instructions for '_ZN4dim3C1Ejjj'...
GPGPU-Sim PTX: reconvergence points for _ZN4dim3C1Ejjj...
GPGPU-Sim PTX: ... end of reconvergence points for _ZN4dim3C1Ejjj
GPGPU-Sim PTX: ... done pre-decoding instructions for '_ZN4dim3C1Ejjj'.
GPGPU-Sim PTX: finished parsing EMBEDDED .ptx file _1.ptx
Adding _cuobjdump_1.ptx with cubin handle 1
GPGPU-Sim PTX: extracting embedded .ptx to temporary file "_ptx_NRTS8y"
Running: cat _ptx_NRTS8y | sed 's/.version 1.5/.version 1.4/' | sed 's/, texmode_independent//' | sed 's/\(\.extern \.const\[1\] .b8 \w\+\)\[\]/\1\[1\]/' | sed 's/const\[.\]/const\[0\]/g' > _ptx2_nKd49g
GPGPU-Sim PTX: generating ptxinfo using "$CUDA_INSTALL_PATH/bin/ptxas --gpu-name=sm_20 -v _ptx2_nKd49g --output-file  /dev/null 2> _ptx_NRTS8yinfo"
GPGPU-Sim PTX: Kernel '_Z6renderPjP4Nodejjff' : regs=45, lmem=4, smem=0, cmem=180
GPGPU-Sim PTX: removing ptxinfo using "rm -f _ptx_NRTS8y _ptx2_nKd49g _ptx_NRTS8yinfo"
GPGPU-Sim PTX: loading globals with explicit initializers... 
GPGPU-Sim PTX: finished loading globals (0 bytes total).
GPGPU-Sim PTX: loading constants with explicit initializers...  done.
GPGPU-Sim PTX: __cudaRegisterVar: hostVar = 0x62fda0; deviceAddress = MView; deviceName = MView
GPGPU-Sim PTX: __cudaRegisterVar: Registering const memory space of 48 bytes
GPGPU-Sim PTX registering constant MView (48 bytes) to name mapping
GPGPU-Sim PTX: __cudaRegisterVar: hostVar = 0x62fde0; deviceAddress = cnode; deviceName = cnode
GPGPU-Sim PTX: __cudaRegisterVar: Registering const memory space of 160 bytes
GPGPU-Sim PTX registering constant cnode (160 bytes) to name mapping
GPGPU-Sim PTX: cudaMemcpyToSymbol: symbol = 0x62fde0
GPGPU-Sim PTX: starting gpgpu_ptx_sim_memcpy_symbol with hostVar 0x0x62fde0
GPGPU-Sim PTX: gpgpu_ptx_sim_memcpy_symbol: Found PTX symbol w/ hostVar=0x62fde0
GPGPU-Sim PTX: gpgpu_ptx_sim_memcpy_symbol: copying const memory 160 bytes  to  symbol cnode+0 @0x100 ...
GPGPU-Sim PTX: cudaMemcpyToSymbol: symbol = 0x62fda0
GPGPU-Sim PTX: starting gpgpu_ptx_sim_memcpy_symbol with hostVar 0x0x62fda0
GPGPU-Sim PTX: gpgpu_ptx_sim_memcpy_symbol: Found PTX symbol w/ hostVar=0x62fda0
GPGPU-Sim PTX: gpgpu_ptx_sim_memcpy_symbol: copying const memory 48 bytes  to  symbol MView+0 @0x200 ...

GPGPU-Sim PTX: cudaLaunch for 0x0x40ce13 (mode=performance simulation) on stream 0
GPGPU-Sim PTX: pushing kernel '_Z6renderPjP4Nodejjff' to stream 0, gridDim= (16,32,1) blockDim = (16,8,1) 
kernel '_Z6renderPjP4Nodejjff' transfer to GPU hardware scheduler
GPGPU-Sim uArch: Shader 1 bind to kernel 1 '_Z6renderPjP4Nodejjff'
GPGPU-Sim uArch: CTA/core = 5, limited by: regs
GPGPU-Sim uArch: core:  1, cta: 0 initialized @(1,0)
GPGPU-Sim uArch: Shader 2 bind to kernel 1 '_Z6renderPjP4Nodejjff'
GPGPU-Sim uArch: core:  2, cta: 0 initialized @(1,0)
GPGPU-Sim uArch: Shader 3 bind to kernel 1 '_Z6renderPjP4Nodejjff'
GPGPU-Sim uArch: core:  3, cta: 0 initialized @(1,0)
GPGPU-Sim uArch: Shader 4 bind to kernel 1 '_Z6renderPjP4Nodejjff'
GPGPU-Sim uArch: core:  4, cta: 0 initialized @(1,0)
GPGPU-Sim uArch: Shader 5 bind to kernel 1 '_Z6renderPjP4Nodejjff'
GPGPU-Sim uArch: core:  5, cta: 0 initialized @(1,0)
GPGPU-Sim uArch: Shader 6 bind to kernel 1 '_Z6renderPjP4Nodejjff'
GPGPU-Sim uArch: core:  6, cta: 0 initialized @(1,0)
GPGPU-Sim uArch: Shader 7 bind to kernel 1 '_Z6renderPjP4Nodejjff'
GPGPU-Sim uArch: core:  7, cta: 0 initialized @(1,0)
GPGPU-Sim uArch: Shader 8 bind to kernel 1 '_Z6renderPjP4Nodejjff'
GPGPU-Sim uArch: core:  8, cta: 0 initialized @(1,0)
GPGPU-Sim uArch: Shader 9 bind to kernel 1 '_Z6renderPjP4Nodejjff'
GPGPU-Sim uArch: core:  9, cta: 0 initialized @(1,0)
GPGPU-Sim uArch: Shader 10 bind to kernel 1 '_Z6renderPjP4Nodejjff'
GPGPU-Sim uArch: core: 10, cta: 0 initialized @(1,0)
GPGPU-Sim uArch: Shader 11 bind to kernel 1 '_Z6renderPjP4Nodejjff'
GPGPU-Sim uArch: core: 11, cta: 0 initialized @(1,0)
GPGPU-Sim uArch: Shader 12 bind to kernel 1 '_Z6renderPjP4Nodejjff'
GPGPU-Sim uArch: core: 12, cta: 0 initialized @(1,0)
GPGPU-Sim uArch: Shader 13 bind to kernel 1 '_Z6renderPjP4Nodejjff'
GPGPU-Sim uArch: core: 13, cta: 0 initialized @(1,0)
GPGPU-Sim uArch: Shader 14 bind to kernel 1 '_Z6renderPjP4Nodejjff'
GPGPU-Sim uArch: core: 14, cta: 0 initialized @(1,0)
GPGPU-Sim uArch: Shader 0 bind to kernel 1 '_Z6renderPjP4Nodejjff'
GPGPU-Sim uArch: core:  0, cta: 0 initialized @(1,0)
GPGPU-Sim uArch: core:  1, cta: 1 initialized @(2,0)
GPGPU-Sim uArch: core:  2, cta: 1 initialized @(2,0)
GPGPU-Sim uArch: core:  3, cta: 1 initialized @(2,0)
GPGPU-Sim uArch: core:  4, cta: 1 initialized @(2,0)
GPGPU-Sim uArch: core:  5, cta: 1 initialized @(2,0)
GPGPU-Sim uArch: core:  6, cta: 1 initialized @(2,0)
GPGPU-Sim uArch: core:  7, cta: 1 initialized @(2,0)
GPGPU-Sim uArch: core:  8, cta: 1 initialized @(2,0)
GPGPU-Sim uArch: core:  9, cta: 1 initialized @(2,0)
GPGPU-Sim uArch: core: 10, cta: 1 initialized @(2,0)
GPGPU-Sim uArch: core: 11, cta: 1 initialized @(2,0)
GPGPU-Sim uArch: core: 12, cta: 1 initialized @(2,0)
GPGPU-Sim uArch: core: 13, cta: 1 initialized @(2,0)
GPGPU-Sim uArch: core: 14, cta: 1 initialized @(2,0)
GPGPU-Sim uArch: core:  0, cta: 1 initialized @(2,0)
GPGPU-Sim uArch: core:  1, cta: 2 initialized @(3,0)
GPGPU-Sim uArch: core:  2, cta: 2 initialized @(3,0)
GPGPU-Sim uArch: core:  3, cta: 2 initialized @(3,0)
GPGPU-Sim uArch: core:  4, cta: 2 initialized @(3,0)
GPGPU-Sim uArch: core:  5, cta: 2 initialized @(3,0)
GPGPU-Sim uArch: core:  6, cta: 2 initialized @(3,0)
GPGPU-Sim uArch: core:  7, cta: 2 initialized @(3,0)
GPGPU-Sim uArch: core:  8, cta: 2 initialized @(3,0)
GPGPU-Sim uArch: core:  9, cta: 2 initialized @(3,0)
GPGPU-Sim uArch: core: 10, cta: 2 initialized @(3,0)
GPGPU-Sim uArch: core: 11, cta: 2 initialized @(3,0)
GPGPU-Sim uArch: core: 12, cta: 2 initialized @(3,0)
GPGPU-Sim uArch: core: 13, cta: 2 initialized @(3,0)
GPGPU-Sim uArch: core: 14, cta: 2 initialized @(3,0)
GPGPU-Sim uArch: core:  0, cta: 2 initialized @(3,0)
GPGPU-Sim uArch: core:  1, cta: 3 initialized @(4,0)
GPGPU-Sim uArch: core:  2, cta: 3 initialized @(4,0)
GPGPU-Sim uArch: core:  3, cta: 3 initialized @(4,0)
GPGPU-Sim uArch: core:  4, cta: 3 initialized @(4,0)
GPGPU-Sim uArch: core:  5, cta: 3 initialized @(4,0)
GPGPU-Sim uArch: core:  6, cta: 3 initialized @(4,0)
GPGPU-Sim uArch: core:  7, cta: 3 initialized @(4,0)
GPGPU-Sim uArch: core:  8, cta: 3 initialized @(4,0)
GPGPU-Sim uArch: core:  9, cta: 3 initialized @(4,0)
GPGPU-Sim uArch: core: 10, cta: 3 initialized @(4,0)
GPGPU-Sim uArch: core: 11, cta: 3 initialized @(4,0)
GPGPU-Sim uArch: core: 12, cta: 3 initialized @(4,0)
GPGPU-Sim uArch: core: 13, cta: 3 initialized @(4,0)
GPGPU-Sim uArch: core: 14, cta: 3 initialized @(4,0)
GPGPU-Sim uArch: core:  0, cta: 3 initialized @(4,0)
GPGPU-Sim uArch: core:  1, cta: 4 initialized @(5,0)
GPGPU-Sim uArch: core:  2, cta: 4 initialized @(5,0)
GPGPU-Sim uArch: core:  3, cta: 4 initialized @(5,0)
GPGPU-Sim uArch: core:  4, cta: 4 initialized @(5,0)
GPGPU-Sim uArch: core:  5, cta: 4 initialized @(5,0)
GPGPU-Sim uArch: core:  6, cta: 4 initialized @(5,0)
GPGPU-Sim uArch: core:  7, cta: 4 initialized @(5,0)
GPGPU-Sim uArch: core:  8, cta: 4 initialized @(5,0)
GPGPU-Sim uArch: core:  9, cta: 4 initialized @(5,0)
GPGPU-Sim uArch: core: 10, cta: 4 initialized @(5,0)
GPGPU-Sim uArch: core: 11, cta: 4 initialized @(5,0)
GPGPU-Sim uArch: core: 12, cta: 4 initialized @(5,0)
GPGPU-Sim uArch: core: 13, cta: 4 initialized @(5,0)
GPGPU-Sim uArch: core: 14, cta: 4 initialized @(5,0)
GPGPU-Sim uArch: core:  0, cta: 4 initialized @(5,0)
GPGPU-Sim uArch: cycles simulated: 500  inst.: 36032 (ipc=72.1) sim_rate=36032 (inst/sec) elapsed = 0:0:00:01 / Sun Feb 28 21:30:18 2016
GPGPU-Sim PTX: 100000 instructions simulated : ctaid=(9,0,0) tid=(15,1,0)
GPGPU-Sim uArch: cycles simulated: 2500  inst.: 107904 (ipc=43.2) sim_rate=53952 (inst/sec) elapsed = 0:0:00:02 / Sun Feb 28 21:30:19 2016
GPGPU-Sim PTX: 200000 instructions simulated : ctaid=(2,0,0) tid=(15,5,0)
GPGPU-Sim PTX: 300000 instructions simulated : ctaid=(7,0,0) tid=(15,5,0)
GPGPU-Sim uArch: cycles simulated: 5000  inst.: 323424 (ipc=64.7) sim_rate=107808 (inst/sec) elapsed = 0:0:00:03 / Sun Feb 28 21:30:20 2016
GPGPU-Sim PTX: 400000 instructions simulated : ctaid=(4,0,0) tid=(15,1,0)
GPGPU-Sim PTX: 500000 instructions simulated : ctaid=(0,3,0) tid=(15,5,0)
GPGPU-Sim PTX: 600000 instructions simulated : ctaid=(1,1,0) tid=(15,5,0)
GPGPU-Sim uArch: cycles simulated: 6500  inst.: 606592 (ipc=93.3) sim_rate=151648 (inst/sec) elapsed = 0:0:00:04 / Sun Feb 28 21:30:21 2016
GPGPU-Sim PTX: 700000 instructions simulated : ctaid=(0,0,0) tid=(15,7,0)
GPGPU-Sim PTX: 800000 instructions simulated : ctaid=(2,3,0) tid=(15,7,0)
GPGPU-Sim PTX: 900000 instructions simulated : ctaid=(3,2,0) tid=(15,7,0)
GPGPU-Sim uArch: cycles simulated: 8000  inst.: 926304 (ipc=115.8) sim_rate=185260 (inst/sec) elapsed = 0:0:00:05 / Sun Feb 28 21:30:22 2016
GPGPU-Sim PTX: 1000000 instructions simulated : ctaid=(0,4,0) tid=(15,3,0)
GPGPU-Sim PTX: 1100000 instructions simulated : ctaid=(2,4,0) tid=(15,3,0)
GPGPU-Sim PTX: 1200000 instructions simulated : ctaid=(12,3,0) tid=(15,5,0)
GPGPU-Sim PTX: 1300000 instructions simulated : ctaid=(4,1,0) tid=(15,1,0)
GPGPU-Sim PTX: 1400000 instructions simulated : ctaid=(3,2,0) tid=(15,7,0)
GPGPU-Sim PTX: 1500000 instructions simulated : ctaid=(11,2,0) tid=(15,3,0)
GPGPU-Sim uArch: cycles simulated: 9500  inst.: 1552352 (ipc=163.4) sim_rate=258725 (inst/sec) elapsed = 0:0:00:06 / Sun Feb 28 21:30:23 2016
GPGPU-Sim PTX: 1600000 instructions simulated : ctaid=(10,1,0) tid=(15,7,0)
GPGPU-Sim PTX: 1700000 instructions simulated : ctaid=(6,2,0) tid=(15,5,0)
GPGPU-Sim PTX: 1800000 instructions simulated : ctaid=(0,0,0) tid=(15,7,0)
GPGPU-Sim PTX: 1900000 instructions simulated : ctaid=(7,0,0) tid=(15,5,0)
GPGPU-Sim PTX: 2000000 instructions simulated : ctaid=(6,2,0) tid=(15,1,0)
GPGPU-Sim PTX: 2100000 instructions simulated : ctaid=(15,1,0) tid=(15,7,0)
GPGPU-Sim PTX: 2200000 instructions simulated : ctaid=(11,1,0) tid=(15,5,0)
GPGPU-Sim PTX: 2300000 instructions simulated : ctaid=(12,1,0) tid=(15,1,0)
GPGPU-Sim uArch: cycles simulated: 10500  inst.: 2282176 (ipc=217.4) sim_rate=326025 (inst/sec) elapsed = 0:0:00:07 / Sun Feb 28 21:30:24 2016
GPGPU-Sim PTX: 2400000 instructions simulated : ctaid=(8,2,0) tid=(15,5,0)
GPGPU-Sim PTX: 2500000 instructions simulated : ctaid=(15,1,0) tid=(15,5,0)
GPGPU-Sim PTX: 2600000 instructions simulated : ctaid=(11,2,0) tid=(15,1,0)
GPGPU-Sim PTX: 2700000 instructions simulated : ctaid=(9,2,0) tid=(15,3,0)
GPGPU-Sim uArch: cycles simulated: 11000  inst.: 2688032 (ipc=244.4) sim_rate=336004 (inst/sec) elapsed = 0:0:00:08 / Sun Feb 28 21:30:25 2016
GPGPU-Sim PTX: 2800000 instructions simulated : ctaid=(10,3,0) tid=(15,1,0)
GPGPU-Sim PTX: 2900000 instructions simulated : ctaid=(15,1,0) tid=(15,3,0)
GPGPU-Sim PTX: 3000000 instructions simulated : ctaid=(1,4,0) tid=(15,5,0)
GPGPU-Sim PTX: 3100000 instructions simulated : ctaid=(14,1,0) tid=(15,5,0)
GPGPU-Sim PTX: 3200000 instructions simulated : ctaid=(10,3,0) tid=(15,7,0)
GPGPU-Sim PTX: 3300000 instructions simulated : ctaid=(5,3,0) tid=(15,3,0)
GPGPU-Sim uArch: cycles simulated: 12000  inst.: 3265152 (ipc=272.1) sim_rate=362794 (inst/sec) elapsed = 0:0:00:09 / Sun Feb 28 21:30:26 2016
GPGPU-Sim PTX: 3400000 instructions simulated : ctaid=(7,4,0) tid=(15,5,0)
GPGPU-Sim PTX: 3500000 instructions simulated : ctaid=(10,2,0) tid=(15,3,0)
GPGPU-Sim PTX: 3600000 instructions simulated : ctaid=(3,0,0) tid=(15,3,0)
GPGPU-Sim PTX: 3700000 instructions simulated : ctaid=(9,0,0) tid=(15,5,0)
GPGPU-Sim PTX: 3800000 instructions simulated : ctaid=(12,2,0) tid=(15,5,0)
GPGPU-Sim PTX: 3900000 instructions simulated : ctaid=(1,3,0) tid=(15,1,0)
GPGPU-Sim uArch: cycles simulated: 13500  inst.: 3826752 (ipc=283.5) sim_rate=382675 (inst/sec) elapsed = 0:0:00:10 / Sun Feb 28 21:30:27 2016
GPGPU-Sim PTX: 4000000 instructions simulated : ctaid=(0,2,0) tid=(15,1,0)
GPGPU-Sim PTX: 4100000 instructions simulated : ctaid=(15,1,0) tid=(15,3,0)
GPGPU-Sim PTX: 4200000 instructions simulated : ctaid=(11,1,0) tid=(15,3,0)
GPGPU-Sim PTX: 4300000 instructions simulated : ctaid=(14,1,0) tid=(15,1,0)
GPGPU-Sim PTX: 4400000 instructions simulated : ctaid=(0,2,0) tid=(15,5,0)
GPGPU-Sim uArch: cycles simulated: 15000  inst.: 4309920 (ipc=287.3) sim_rate=391810 (inst/sec) elapsed = 0:0:00:11 / Sun Feb 28 21:30:28 2016
GPGPU-Sim PTX: 4500000 instructions simulated : ctaid=(15,3,0) tid=(15,3,0)
GPGPU-Sim PTX: 4600000 instructions simulated : ctaid=(13,0,0) tid=(8,0,0)
GPGPU-Sim PTX: 4700000 instructions simulated : ctaid=(15,1,0) tid=(13,1,0)
GPGPU-Sim PTX: 4800000 instructions simulated : ctaid=(14,0,0) tid=(15,4,0)
GPGPU-Sim PTX: 4900000 instructions simulated : ctaid=(0,4,0) tid=(15,4,0)
GPGPU-Sim PTX: 5000000 instructions simulated : ctaid=(15,2,0) tid=(15,2,0)
GPGPU-Sim uArch: cycles simulated: 16000  inst.: 4916240 (ipc=307.3) sim_rate=409686 (inst/sec) elapsed = 0:0:00:12 / Sun Feb 28 21:30:29 2016
GPGPU-Sim PTX: 5100000 instructions simulated : ctaid=(13,0,0) tid=(15,0,0)
GPGPU-Sim PTX: 5200000 instructions simulated : ctaid=(10,1,0) tid=(15,2,0)
GPGPU-Sim PTX: 5300000 instructions simulated : ctaid=(11,2,0) tid=(15,4,0)
GPGPU-Sim PTX: 5400000 instructions simulated : ctaid=(10,1,0) tid=(15,6,0)
GPGPU-Sim PTX: 5500000 instructions simulated : ctaid=(1,0,0) tid=(12,5,0)
GPGPU-Sim PTX: 5600000 instructions simulated : ctaid=(11,0,0) tid=(1,7,0)
GPGPU-Sim PTX: 5700000 instructions simulated : ctaid=(10,4,0) tid=(1,4,0)
GPGPU-Sim PTX: 5800000 instructions simulated : ctaid=(6,3,0) tid=(15,6,0)
GPGPU-Sim uArch: cycles simulated: 17000  inst.: 5666337 (ipc=333.3) sim_rate=435872 (inst/sec) elapsed = 0:0:00:13 / Sun Feb 28 21:30:30 2016
GPGPU-Sim PTX: 5900000 instructions simulated : ctaid=(9,0,0) tid=(12,0,0)
GPGPU-Sim PTX: 6000000 instructions simulated : ctaid=(1,4,0) tid=(15,2,0)
GPGPU-Sim uArch: cycles simulated: 17500  inst.: 5897092 (ipc=337.0) sim_rate=421220 (inst/sec) elapsed = 0:0:00:14 / Sun Feb 28 21:30:31 2016
GPGPU-Sim PTX: 6100000 instructions simulated : ctaid=(11,0,0) tid=(11,7,0)
GPGPU-Sim PTX: 6200000 instructions simulated : ctaid=(8,3,0) tid=(11,7,0)
GPGPU-Sim PTX: 6300000 instructions simulated : ctaid=(1,2,0) tid=(11,5,0)
GPGPU-Sim PTX: 6400000 instructions simulated : ctaid=(11,2,0) tid=(11,1,0)
GPGPU-Sim PTX: 6500000 instructions simulated : ctaid=(13,3,0) tid=(11,6,0)
GPGPU-Sim uArch: cycles simulated: 19500  inst.: 6349860 (ipc=325.6) sim_rate=423324 (inst/sec) elapsed = 0:0:00:15 / Sun Feb 28 21:30:32 2016
GPGPU-Sim PTX: 6600000 instructions simulated : ctaid=(2,3,0) tid=(11,1,0)
GPGPU-Sim PTX: 6700000 instructions simulated : ctaid=(10,1,0) tid=(11,5,0)
GPGPU-Sim PTX: 6800000 instructions simulated : ctaid=(1,3,0) tid=(11,7,0)
GPGPU-Sim PTX: 6900000 instructions simulated : ctaid=(15,0,0) tid=(11,7,0)
GPGPU-Sim PTX: 7000000 instructions simulated : ctaid=(9,1,0) tid=(11,1,0)
GPGPU-Sim PTX: 7100000 instructions simulated : ctaid=(11,3,0) tid=(11,1,0)
GPGPU-Sim uArch: cycles simulated: 21000  inst.: 6944644 (ipc=330.7) sim_rate=434040 (inst/sec) elapsed = 0:0:00:16 / Sun Feb 28 21:30:33 2016
GPGPU-Sim PTX: 7200000 instructions simulated : ctaid=(8,3,0) tid=(11,3,0)
GPGPU-Sim PTX: 7300000 instructions simulated : ctaid=(5,3,0) tid=(11,5,0)
GPGPU-Sim PTX: 7400000 instructions simulated : ctaid=(15,1,0) tid=(11,7,0)
GPGPU-Sim uArch: cycles simulated: 22000  inst.: 7232612 (ipc=328.8) sim_rate=425447 (inst/sec) elapsed = 0:0:00:17 / Sun Feb 28 21:30:34 2016
GPGPU-Sim PTX: 7500000 instructions simulated : ctaid=(12,2,0) tid=(11,7,0)
GPGPU-Sim PTX: 7600000 instructions simulated : ctaid=(10,0,0) tid=(11,3,0)
GPGPU-Sim PTX: 7700000 instructions simulated : ctaid=(3,0,0) tid=(11,7,0)
GPGPU-Sim PTX: 7800000 instructions simulated : ctaid=(12,0,0) tid=(11,7,0)
GPGPU-Sim PTX: 7900000 instructions simulated : ctaid=(12,2,0) tid=(11,3,0)
GPGPU-Sim uArch: cycles simulated: 23500  inst.: 7771940 (ipc=330.7) sim_rate=431774 (inst/sec) elapsed = 0:0:00:18 / Sun Feb 28 21:30:35 2016
GPGPU-Sim PTX: 8000000 instructions simulated : ctaid=(7,3,0) tid=(11,1,0)
GPGPU-Sim PTX: 8100000 instructions simulated : ctaid=(8,3,0) tid=(11,3,0)
GPGPU-Sim PTX: 8200000 instructions simulated : ctaid=(10,4,0) tid=(11,1,0)
GPGPU-Sim PTX: 8300000 instructions simulated : ctaid=(2,1,0) tid=(11,5,0)
GPGPU-Sim PTX: 8400000 instructions simulated : ctaid=(2,1,0) tid=(11,7,0)
GPGPU-Sim PTX: 8500000 instructions simulated : ctaid=(0,3,0) tid=(11,1,0)
GPGPU-Sim PTX: 8600000 instructions simulated : ctaid=(4,1,0) tid=(0,1,0)
GPGPU-Sim PTX: 8700000 instructions simulated : ctaid=(3,0,0) tid=(5,4,0)
GPGPU-Sim uArch: cycles simulated: 25000  inst.: 8527838 (ipc=341.1) sim_rate=448833 (inst/sec) elapsed = 0:0:00:19 / Sun Feb 28 21:30:36 2016
GPGPU-Sim PTX: 8800000 instructions simulated : ctaid=(7,2,0) tid=(1,0,0)
GPGPU-Sim PTX: 8900000 instructions simulated : ctaid=(5,0,0) tid=(11,3,0)
GPGPU-Sim PTX: 9000000 instructions simulated : ctaid=(8,0,0) tid=(11,1,0)
GPGPU-Sim PTX: 9100000 instructions simulated : ctaid=(8,3,0) tid=(1,2,0)
GPGPU-Sim uArch: cycles simulated: 25500  inst.: 8928324 (ipc=350.1) sim_rate=446416 (inst/sec) elapsed = 0:0:00:20 / Sun Feb 28 21:30:37 2016
GPGPU-Sim PTX: 9200000 instructions simulated : ctaid=(3,2,0) tid=(3,7,0)
GPGPU-Sim PTX: 9300000 instructions simulated : ctaid=(14,1,0) tid=(1,0,0)
GPGPU-Sim PTX: 9400000 instructions simulated : ctaid=(14,0,0) tid=(11,1,0)
GPGPU-Sim PTX: 9500000 instructions simulated : ctaid=(15,1,0) tid=(10,1,0)
GPGPU-Sim PTX: 9600000 instructions simulated : ctaid=(5,1,0) tid=(3,7,0)
GPGPU-Sim PTX: 9700000 instructions simulated : ctaid=(14,0,0) tid=(10,1,0)
GPGPU-Sim PTX: 9800000 instructions simulated : ctaid=(3,0,0) tid=(9,4,0)
GPGPU-Sim PTX: 9900000 instructions simulated : ctaid=(13,3,0) tid=(15,3,0)
GPGPU-Sim uArch: cycles simulated: 26500  inst.: 9670663 (ipc=364.9) sim_rate=460507 (inst/sec) elapsed = 0:0:00:21 / Sun Feb 28 21:30:38 2016
GPGPU-Sim PTX: 10000000 instructions simulated : ctaid=(15,3,0) tid=(14,7,0)
GPGPU-Sim PTX: 10100000 instructions simulated : ctaid=(9,1,0) tid=(13,1,0)
GPGPU-Sim PTX: 10200000 instructions simulated : ctaid=(13,2,0) tid=(13,5,0)
GPGPU-Sim uArch: cycles simulated: 27500  inst.: 9930230 (ipc=361.1) sim_rate=451374 (inst/sec) elapsed = 0:0:00:22 / Sun Feb 28 21:30:39 2016
GPGPU-Sim PTX: 10300000 instructions simulated : ctaid=(11,3,0) tid=(14,7,0)
GPGPU-Sim PTX: 10400000 instructions simulated : ctaid=(4,1,0) tid=(7,5,0)
GPGPU-Sim uArch: Shader 0 finished CTA #0 (28272,0), 4 CTAs running
GPGPU-Sim uArch: core:  0, cta: 0 initialized @(28273,0)
GPGPU-Sim uArch: Shader 0 finished CTA #1 (28290,0), 4 CTAs running
GPGPU-Sim uArch: core:  0, cta: 1 initialized @(28291,0)
GPGPU-Sim uArch: Shader 6 finished CTA #2 (28308,0), 4 CTAs running
GPGPU-Sim uArch: core:  6, cta: 2 initialized @(28309,0)
GPGPU-Sim uArch: Shader 4 finished CTA #1 (28341,0), 4 CTAs running
GPGPU-Sim uArch: core:  4, cta: 1 initialized @(28342,0)
GPGPU-Sim uArch: Shader 0 finished CTA #2 (28346,0), 4 CTAs running
GPGPU-Sim uArch: core:  0, cta: 2 initialized @(28347,0)
GPGPU-Sim uArch: Shader 1 finished CTA #1 (28350,0), 4 CTAs running
GPGPU-Sim uArch: core:  1, cta: 1 initialized @(28351,0)
GPGPU-Sim uArch: Shader 0 finished CTA #3 (28354,0), 4 CTAs running
GPGPU-Sim uArch: core:  0, cta: 3 initialized @(28355,0)
GPGPU-Sim uArch: Shader 4 finished CTA #2 (28356,0), 4 CTAs running
GPGPU-Sim uArch: core:  4, cta: 2 initialized @(28357,0)
GPGPU-Sim uArch: Shader 6 finished CTA #3 (28369,0), 4 CTAs running
GPGPU-Sim uArch: core:  6, cta: 3 initialized @(28370,0)
GPGPU-Sim uArch: Shader 0 finished CTA #4 (28372,0), 4 CTAs running
GPGPU-Sim uArch: core:  0, cta: 4 initialized @(28373,0)
GPGPU-Sim uArch: Shader 9 finished CTA #3 (28374,0), 4 CTAs running
GPGPU-Sim uArch: core:  9, cta: 3 initialized @(28375,0)
GPGPU-Sim uArch: Shader 2 finished CTA #1 (28378,0), 4 CTAs running
GPGPU-Sim uArch: core:  2, cta: 1 initialized @(28379,0)
GPGPU-Sim uArch: Shader 3 finished CTA #0 (28382,0), 4 CTAs running
GPGPU-Sim uArch: core:  3, cta: 0 initialized @(28383,0)
GPGPU-Sim uArch: Shader 9 finished CTA #4 (28390,0), 4 CTAs running
GPGPU-Sim uArch: core:  9, cta: 4 initialized @(28391,0)
GPGPU-Sim uArch: Shader 2 finished CTA #4 (28402,0), 4 CTAs running
GPGPU-Sim uArch: core:  2, cta: 4 initialized @(28403,0)
GPGPU-Sim uArch: Shader 6 finished CTA #4 (28412,0), 4 CTAs running
GPGPU-Sim uArch: core:  6, cta: 4 initialized @(28413,0)
GPGPU-Sim uArch: Shader 2 finished CTA #0 (28416,0), 4 CTAs running
GPGPU-Sim uArch: core:  2, cta: 0 initialized @(28417,0)
GPGPU-Sim uArch: Shader 4 finished CTA #3 (28420,0), 4 CTAs running
GPGPU-Sim uArch: core:  4, cta: 3 initialized @(28421,0)
GPGPU-Sim uArch: Shader 2 finished CTA #2 (28426,0), 4 CTAs running
GPGPU-Sim uArch: core:  2, cta: 2 initialized @(28427,0)
GPGPU-Sim uArch: Shader 14 finished CTA #0 (28436,0), 4 CTAs running
GPGPU-Sim uArch: core: 14, cta: 0 initialized @(28437,0)
GPGPU-Sim uArch: Shader 1 finished CTA #0 (28446,0), 4 CTAs running
GPGPU-Sim uArch: core:  1, cta: 0 initialized @(28447,0)
GPGPU-Sim uArch: Shader 3 finished CTA #1 (28450,0), 4 CTAs running
GPGPU-Sim uArch: core:  3, cta: 1 initialized @(28451,0)
GPGPU-Sim uArch: Shader 1 finished CTA #2 (28454,0), 4 CTAs running
GPGPU-Sim uArch: Shader 4 finished CTA #4 (28454,0), 4 CTAs running
GPGPU-Sim uArch: core:  4, cta: 4 initialized @(28455,0)
GPGPU-Sim uArch: core:  1, cta: 2 initialized @(28455,0)
GPGPU-Sim uArch: Shader 8 finished CTA #2 (28458,0), 4 CTAs running
GPGPU-Sim uArch: core:  8, cta: 2 initialized @(28459,0)
GPGPU-Sim uArch: Shader 1 finished CTA #3 (28462,0), 4 CTAs running
GPGPU-Sim uArch: core:  1, cta: 3 initialized @(28463,0)
GPGPU-Sim uArch: Shader 8 finished CTA #3 (28466,0), 4 CTAs running
GPGPU-Sim uArch: core:  8, cta: 3 initialized @(28467,0)
GPGPU-Sim uArch: Shader 1 finished CTA #4 (28470,0), 4 CTAs running
GPGPU-Sim uArch: core:  1, cta: 4 initialized @(28471,0)
GPGPU-Sim uArch: Shader 3 finished CTA #2 (28482,0), 4 CTAs running
GPGPU-Sim uArch: core:  3, cta: 2 initialized @(28483,0)
GPGPU-Sim uArch: Shader 8 finished CTA #4 (28488,0), 4 CTAs running
GPGPU-Sim uArch: core:  8, cta: 4 initialized @(28489,0)
GPGPU-Sim uArch: Shader 3 finished CTA #4 (28493,0), 4 CTAs running
GPGPU-Sim uArch: core:  3, cta: 4 initialized @(28494,0)
GPGPU-Sim uArch: cycles simulated: 28500  inst.: 10225754 (ipc=358.8) sim_rate=444598 (inst/sec) elapsed = 0:0:00:23 / Sun Feb 28 21:30:40 2016
GPGPU-Sim PTX: 10500000 instructions simulated : ctaid=(6,3,0) tid=(10,3,0)
GPGPU-Sim uArch: Shader 5 finished CTA #2 (28509,0), 4 CTAs running
GPGPU-Sim uArch: core:  5, cta: 2 initialized @(28510,0)
GPGPU-Sim uArch: Shader 3 finished CTA #3 (28514,0), 4 CTAs running
GPGPU-Sim uArch: core:  3, cta: 3 initialized @(28515,0)
GPGPU-Sim uArch: Shader 2 finished CTA #3 (28518,0), 4 CTAs running
GPGPU-Sim uArch: core:  2, cta: 3 initialized @(28519,0)
GPGPU-Sim uArch: Shader 5 finished CTA #3 (28529,0), 4 CTAs running
GPGPU-Sim uArch: core:  5, cta: 3 initialized @(28530,0)
GPGPU-Sim uArch: Shader 7 finished CTA #3 (28532,0), 4 CTAs running
GPGPU-Sim uArch: core:  7, cta: 3 initialized @(28533,0)
GPGPU-Sim uArch: Shader 5 finished CTA #4 (28534,0), 4 CTAs running
GPGPU-Sim uArch: core:  5, cta: 4 initialized @(28535,0)
GPGPU-Sim uArch: Shader 7 finished CTA #4 (28539,0), 4 CTAs running
GPGPU-Sim uArch: core:  7, cta: 4 initialized @(28540,0)
GPGPU-Sim uArch: Shader 10 finished CTA #4 (28626,0), 4 CTAs running
GPGPU-Sim uArch: core: 10, cta: 4 initialized @(28627,0)
GPGPU-Sim PTX: 10600000 instructions simulated : ctaid=(10,0,0) tid=(5,2,0)
GPGPU-Sim PTX: 10700000 instructions simulated : ctaid=(5,6,0) tid=(4,1,0)
GPGPU-Sim PTX: 10800000 instructions simulated : ctaid=(9,4,0) tid=(2,5,0)
GPGPU-Sim PTX: 10900000 instructions simulated : ctaid=(7,2,0) tid=(9,0,0)
GPGPU-Sim PTX: 11000000 instructions simulated : ctaid=(0,6,0) tid=(13,7,0)
GPGPU-Sim uArch: cycles simulated: 30000  inst.: 10718905 (ipc=357.3) sim_rate=446621 (inst/sec) elapsed = 0:0:00:24 / Sun Feb 28 21:30:41 2016
GPGPU-Sim PTX: 11100000 instructions simulated : ctaid=(8,0,0) tid=(15,7,0)
GPGPU-Sim PTX: 11200000 instructions simulated : ctaid=(7,0,0) tid=(11,5,0)
GPGPU-Sim PTX: 11300000 instructions simulated : ctaid=(12,0,0) tid=(6,5,0)
GPGPU-Sim PTX: 11400000 instructions simulated : ctaid=(14,5,0) tid=(8,4,0)
GPGPU-Sim PTX: 11500000 instructions simulated : ctaid=(3,5,0) tid=(5,2,0)
GPGPU-Sim uArch: cycles simulated: 31000  inst.: 11212190 (ipc=361.7) sim_rate=448487 (inst/sec) elapsed = 0:0:00:25 / Sun Feb 28 21:30:42 2016
GPGPU-Sim PTX: 11600000 instructions simulated : ctaid=(13,6,0) tid=(2,3,0)
GPGPU-Sim PTX: 11700000 instructions simulated : ctaid=(7,1,0) tid=(2,4,0)
GPGPU-Sim PTX: 11800000 instructions simulated : ctaid=(2,6,0) tid=(11,4,0)
GPGPU-Sim PTX: 11900000 instructions simulated : ctaid=(14,5,0) tid=(8,3,0)
GPGPU-Sim PTX: 12000000 instructions simulated : ctaid=(10,6,0) tid=(7,0,0)
GPGPU-Sim PTX: 12100000 instructions simulated : ctaid=(9,5,0) tid=(3,3,0)
GPGPU-Sim uArch: cycles simulated: 32000  inst.: 11787809 (ipc=368.4) sim_rate=453377 (inst/sec) elapsed = 0:0:00:26 / Sun Feb 28 21:30:43 2016
GPGPU-Sim PTX: 12200000 instructions simulated : ctaid=(8,4,0) tid=(11,2,0)
GPGPU-Sim uArch: Shader 14 finished CTA #2 (32222,0), 4 CTAs running
GPGPU-Sim uArch: core: 14, cta: 2 initialized @(32223,0)
GPGPU-Sim PTX: 12300000 instructions simulated : ctaid=(8,5,0) tid=(15,5,0)
GPGPU-Sim PTX: 12400000 instructions simulated : ctaid=(1,5,0) tid=(1,5,0)
GPGPU-Sim uArch: cycles simulated: 32500  inst.: 12113027 (ipc=372.7) sim_rate=448630 (inst/sec) elapsed = 0:0:00:27 / Sun Feb 28 21:30:44 2016
GPGPU-Sim PTX: 12500000 instructions simulated : ctaid=(10,5,0) tid=(10,7,0)
GPGPU-Sim PTX: 12600000 instructions simulated : ctaid=(10,5,0) tid=(8,6,0)
GPGPU-Sim PTX: 12700000 instructions simulated : ctaid=(0,6,0) tid=(5,3,0)
GPGPU-Sim PTX: 12800000 instructions simulated : ctaid=(9,6,0) tid=(10,5,0)
GPGPU-Sim PTX: 12900000 instructions simulated : ctaid=(13,4,0) tid=(6,4,0)
GPGPU-Sim PTX: 13000000 instructions simulated : ctaid=(14,5,0) tid=(13,7,0)
GPGPU-Sim uArch: Shader 7 finished CTA #2 (33480,0), 4 CTAs running
GPGPU-Sim uArch: core:  7, cta: 2 initialized @(33481,0)
GPGPU-Sim uArch: cycles simulated: 33500  inst.: 12728281 (ipc=379.9) sim_rate=454581 (inst/sec) elapsed = 0:0:00:28 / Sun Feb 28 21:30:45 2016
GPGPU-Sim PTX: 13100000 instructions simulated : ctaid=(9,6,0) tid=(11,0,0)
GPGPU-Sim PTX: 13200000 instructions simulated : ctaid=(12,6,0) tid=(11,1,0)
GPGPU-Sim PTX: 13300000 instructions simulated : ctaid=(3,5,0) tid=(1,6,0)
GPGPU-Sim PTX: 13400000 instructions simulated : ctaid=(8,6,0) tid=(11,4,0)
GPGPU-Sim PTX: 13500000 instructions simulated : ctaid=(8,4,0) tid=(1,7,0)
GPGPU-Sim PTX: 13600000 instructions simulated : ctaid=(1,7,0) tid=(6,6,0)
GPGPU-Sim uArch: cycles simulated: 34500  inst.: 13245661 (ipc=383.9) sim_rate=456746 (inst/sec) elapsed = 0:0:00:29 / Sun Feb 28 21:30:46 2016
GPGPU-Sim PTX: 13700000 instructions simulated : ctaid=(6,6,0) tid=(0,5,0)
GPGPU-Sim PTX: 13800000 instructions simulated : ctaid=(5,5,0) tid=(5,7,0)
GPGPU-Sim PTX: 13900000 instructions simulated : ctaid=(5,6,0) tid=(13,2,0)
GPGPU-Sim PTX: 14000000 instructions simulated : ctaid=(0,6,0) tid=(12,0,0)
GPGPU-Sim PTX: 14100000 instructions simulated : ctaid=(2,6,0) tid=(9,5,0)
GPGPU-Sim uArch: cycles simulated: 35500  inst.: 13784461 (ipc=388.3) sim_rate=459482 (inst/sec) elapsed = 0:0:00:30 / Sun Feb 28 21:30:47 2016
GPGPU-Sim PTX: 14200000 instructions simulated : ctaid=(8,1,0) tid=(2,3,0)
GPGPU-Sim PTX: 14300000 instructions simulated : ctaid=(8,5,0) tid=(14,7,0)
GPGPU-Sim PTX: 14400000 instructions simulated : ctaid=(1,5,0) tid=(13,0,0)
GPGPU-Sim PTX: 14500000 instructions simulated : ctaid=(15,6,0) tid=(2,2,0)
GPGPU-Sim PTX: 14600000 instructions simulated : ctaid=(9,3,0) tid=(5,5,0)
GPGPU-Sim PTX: 14700000 instructions simulated : ctaid=(5,6,0) tid=(0,6,0)
GPGPU-Sim uArch: cycles simulated: 36500  inst.: 14357627 (ipc=393.4) sim_rate=463149 (inst/sec) elapsed = 0:0:00:31 / Sun Feb 28 21:30:48 2016
GPGPU-Sim PTX: 14800000 instructions simulated : ctaid=(4,5,0) tid=(4,5,0)
GPGPU-Sim PTX: 14900000 instructions simulated : ctaid=(7,3,0) tid=(9,0,0)
GPGPU-Sim PTX: 15000000 instructions simulated : ctaid=(5,6,0) tid=(0,0,0)
GPGPU-Sim PTX: 15100000 instructions simulated : ctaid=(12,4,0) tid=(13,6,0)
GPGPU-Sim PTX: 15200000 instructions simulated : ctaid=(11,5,0) tid=(7,7,0)
GPGPU-Sim PTX: 15300000 instructions simulated : ctaid=(1,6,0) tid=(6,5,0)
GPGPU-Sim uArch: cycles simulated: 37500  inst.: 14960275 (ipc=398.9) sim_rate=467508 (inst/sec) elapsed = 0:0:00:32 / Sun Feb 28 21:30:49 2016
GPGPU-Sim PTX: 15400000 instructions simulated : ctaid=(7,2,0) tid=(1,1,0)
GPGPU-Sim PTX: 15500000 instructions simulated : ctaid=(7,2,0) tid=(8,7,0)
GPGPU-Sim PTX: 15600000 instructions simulated : ctaid=(4,5,0) tid=(14,2,0)
GPGPU-Sim PTX: 15700000 instructions simulated : ctaid=(4,5,0) tid=(2,5,0)
GPGPU-Sim PTX: 15800000 instructions simulated : ctaid=(6,0,0) tid=(15,7,0)
GPGPU-Sim uArch: cycles simulated: 38500  inst.: 15437515 (ipc=401.0) sim_rate=467803 (inst/sec) elapsed = 0:0:00:33 / Sun Feb 28 21:30:50 2016
GPGPU-Sim PTX: 15900000 instructions simulated : ctaid=(15,4,0) tid=(15,3,0)
GPGPU-Sim PTX: 16000000 instructions simulated : ctaid=(6,2,0) tid=(14,6,0)
GPGPU-Sim PTX: 16100000 instructions simulated : ctaid=(9,3,0) tid=(5,4,0)
GPGPU-Sim PTX: 16200000 instructions simulated : ctaid=(6,4,0) tid=(8,4,0)
GPGPU-Sim uArch: Shader 13 finished CTA #2 (39490,0), 4 CTAs running
GPGPU-Sim uArch: core: 13, cta: 2 initialized @(39491,0)
GPGPU-Sim uArch: cycles simulated: 39500  inst.: 15833138 (ipc=400.8) sim_rate=465680 (inst/sec) elapsed = 0:0:00:34 / Sun Feb 28 21:30:51 2016
GPGPU-Sim PTX: 16300000 instructions simulated : ctaid=(12,6,0) tid=(6,1,0)
GPGPU-Sim uArch: Shader 14 finished CTA #3 (39675,0), 4 CTAs running
GPGPU-Sim uArch: core: 14, cta: 3 initialized @(39676,0)
GPGPU-Sim PTX: 16400000 instructions simulated : ctaid=(2,6,0) tid=(6,4,0)
GPGPU-Sim PTX: 16500000 instructions simulated : ctaid=(7,5,0) tid=(4,7,0)
GPGPU-Sim PTX: 16600000 instructions simulated : ctaid=(5,5,0) tid=(1,5,0)
GPGPU-Sim PTX: 16700000 instructions simulated : ctaid=(15,4,0) tid=(13,1,0)
GPGPU-Sim uArch: cycles simulated: 40500  inst.: 16292981 (ipc=402.3) sim_rate=465513 (inst/sec) elapsed = 0:0:00:35 / Sun Feb 28 21:30:52 2016
GPGPU-Sim PTX: 16800000 instructions simulated : ctaid=(11,6,0) tid=(5,3,0)
GPGPU-Sim PTX: 16900000 instructions simulated : ctaid=(9,0,0) tid=(7,7,0)
GPGPU-Sim PTX: 17000000 instructions simulated : ctaid=(6,0,0) tid=(2,3,0)
GPGPU-Sim PTX: 17100000 instructions simulated : ctaid=(0,5,0) tid=(13,5,0)
GPGPU-Sim PTX: 17200000 instructions simulated : ctaid=(0,6,0) tid=(4,3,0)
GPGPU-Sim uArch: cycles simulated: 41500  inst.: 16748092 (ipc=403.6) sim_rate=465224 (inst/sec) elapsed = 0:0:00:36 / Sun Feb 28 21:30:53 2016
GPGPU-Sim PTX: 17300000 instructions simulated : ctaid=(0,7,0) tid=(14,2,0)
GPGPU-Sim PTX: 17400000 instructions simulated : ctaid=(12,6,0) tid=(0,2,0)
GPGPU-Sim uArch: Shader 5 finished CTA #2 (42070,0), 4 CTAs running
GPGPU-Sim uArch: core:  5, cta: 2 initialized @(42071,0)
GPGPU-Sim uArch: Shader 5 finished CTA #3 (42078,0), 4 CTAs running
GPGPU-Sim uArch: core:  5, cta: 3 initialized @(42079,0)
GPGPU-Sim uArch: Shader 4 finished CTA #0 (42088,0), 4 CTAs running
GPGPU-Sim uArch: core:  4, cta: 0 initialized @(42089,0)
GPGPU-Sim PTX: 17500000 instructions simulated : ctaid=(15,4,0) tid=(5,5,0)
GPGPU-Sim uArch: Shader 5 finished CTA #4 (42111,0), 4 CTAs running
GPGPU-Sim uArch: core:  5, cta: 4 initialized @(42112,0)
GPGPU-Sim uArch: Shader 5 finished CTA #1 (42178,0), 4 CTAs running
GPGPU-Sim uArch: core:  5, cta: 1 initialized @(42179,0)
GPGPU-Sim PTX: 17600000 instructions simulated : ctaid=(5,5,0) tid=(14,4,0)
GPGPU-Sim uArch: cycles simulated: 42500  inst.: 17206950 (ipc=404.9) sim_rate=465052 (inst/sec) elapsed = 0:0:00:37 / Sun Feb 28 21:30:54 2016
GPGPU-Sim PTX: 17700000 instructions simulated : ctaid=(8,1,0) tid=(2,6,0)
GPGPU-Sim PTX: 17800000 instructions simulated : ctaid=(1,7,0) tid=(13,1,0)
GPGPU-Sim PTX: 17900000 instructions simulated : ctaid=(12,5,0) tid=(4,2,0)
GPGPU-Sim PTX: 18000000 instructions simulated : ctaid=(2,6,0) tid=(8,6,0)
GPGPU-Sim PTX: 18100000 instructions simulated : ctaid=(15,5,0) tid=(2,0,0)
GPGPU-Sim uArch: Shader 12 finished CTA #3 (43491,0), 4 CTAs running
GPGPU-Sim uArch: core: 12, cta: 3 initialized @(43492,0)
GPGPU-Sim uArch: cycles simulated: 43500  inst.: 17708529 (ipc=407.1) sim_rate=466013 (inst/sec) elapsed = 0:0:00:38 / Sun Feb 28 21:30:55 2016
GPGPU-Sim PTX: 18200000 instructions simulated : ctaid=(9,1,0) tid=(6,7,0)
GPGPU-Sim PTX: 18300000 instructions simulated : ctaid=(8,6,0) tid=(9,5,0)
GPGPU-Sim uArch: Shader 10 finished CTA #4 (43768,0), 4 CTAs running
GPGPU-Sim uArch: core: 10, cta: 4 initialized @(43769,0)
GPGPU-Sim uArch: Shader 10 finished CTA #3 (43887,0), 4 CTAs running
GPGPU-Sim uArch: core: 10, cta: 3 initialized @(43888,0)
GPGPU-Sim PTX: 18400000 instructions simulated : ctaid=(0,5,0) tid=(12,3,0)
GPGPU-Sim PTX: 18500000 instructions simulated : ctaid=(11,7,0) tid=(2,6,0)
GPGPU-Sim uArch: Shader 7 finished CTA #4 (44104,0), 4 CTAs running
GPGPU-Sim uArch: core:  7, cta: 4 initialized @(44105,0)
GPGPU-Sim uArch: Shader 7 finished CTA #3 (44109,0), 4 CTAs running
GPGPU-Sim uArch: core:  7, cta: 3 initialized @(44110,0)
GPGPU-Sim uArch: Shader 9 finished CTA #3 (44207,0), 4 CTAs running
GPGPU-Sim uArch: core:  9, cta: 3 initialized @(44208,0)
GPGPU-Sim PTX: 18600000 instructions simulated : ctaid=(8,2,0) tid=(2,2,0)
GPGPU-Sim uArch: Shader 14 finished CTA #0 (44342,0), 4 CTAs running
GPGPU-Sim uArch: core: 14, cta: 0 initialized @(44343,0)
GPGPU-Sim uArch: Shader 13 finished CTA #0 (44343,0), 4 CTAs running
GPGPU-Sim uArch: core: 13, cta: 0 initialized @(44344,0)
GPGPU-Sim PTX: 18700000 instructions simulated : ctaid=(6,7,0) tid=(6,1,0)
GPGPU-Sim uArch: Shader 14 finished CTA #1 (44470,0), 4 CTAs running
GPGPU-Sim uArch: core: 14, cta: 1 initialized @(44471,0)
GPGPU-Sim uArch: Shader 13 finished CTA #1 (44494,0), 4 CTAs running
GPGPU-Sim uArch: core: 13, cta: 1 initialized @(44495,0)
GPGPU-Sim uArch: cycles simulated: 44500  inst.: 18220691 (ipc=409.5) sim_rate=467197 (inst/sec) elapsed = 0:0:00:39 / Sun Feb 28 21:30:56 2016
GPGPU-Sim uArch: Shader 6 finished CTA #2 (44570,0), 4 CTAs running
GPGPU-Sim uArch: core:  6, cta: 2 initialized @(44571,0)
GPGPU-Sim uArch: Shader 6 finished CTA #3 (44580,0), 4 CTAs running
GPGPU-Sim uArch: core:  6, cta: 3 initialized @(44581,0)
GPGPU-Sim uArch: Shader 13 finished CTA #3 (44597,0), 4 CTAs running
GPGPU-Sim uArch: core: 13, cta: 3 initialized @(44598,0)
GPGPU-Sim uArch: Shader 6 finished CTA #4 (44628,0), 4 CTAs running
GPGPU-Sim uArch: core:  6, cta: 4 initialized @(44629,0)
GPGPU-Sim PTX: 18800000 instructions simulated : ctaid=(7,7,0) tid=(2,5,0)
GPGPU-Sim PTX: 18900000 instructions simulated : ctaid=(10,7,0) tid=(14,5,0)
[...]
traffic_breakdown_memtocore[LOCAL_ACC_W] = 295168 {8:36896,}
maxmrqlatency = 616 
maxdqlatency = 0 
maxmflatency = 1827 
averagemflatency = 271 
max_icnt2mem_latency = 1107 
max_icnt2sh_latency = 139260 
mrq_lat_table:8921 	885 	829 	1596 	3143 	3132 	3112 	1968 	257 	9 	0 	0 	0 	0 	0 	0 	0 	0 	0 	0 	0 	0 	0 	0 	0 	0 	0 	0 	0 	0 	0 	0 	
dq_lat_table:0 	0 	0 	0 	0 	0 	0 	0 	0 	0 	0 	0 	0 	0 	0 	0 	0 	0 	0 	0 	0 	0 	0 	0 	0 	0 	0 	0 	0 	0 	0 	0 	
mf_lat_table:0 	0 	0 	0 	0 	0 	0 	40663 	7280 	4624 	861 	0 	0 	0 	0 	0 	0 	0 	0 	0 	0 	0 	0 	0 	0 	0 	0 	0 	0 	0 	0 	0 	
icnt2mem_lat_table:0 	0 	0 	20185 	10641 	9613 	22539 	2007 	2361 	433 	4 	0 	0 	0 	0 	0 	0 	0 	0 	0 	0 	0 	0 	0 	
icnt2sh_lat_table:0 	0 	0 	2265 	3154 	2407 	514 	0 	0 	186 	497 	1395 	3086 	2636 	6092 	10242 	17906 	3048 	0 	0 	0 	0 	0 	0 	
mf_lat_pw_table:0 	0 	0 	0 	0 	0 	0 	230 	9 	16 	2 	0 	0 	0 	0 	0 	0 	0 	0 	0 	0 	0 	0 	0 	0 	0 	0 	0 	0 	0 	0 	0 	
maximum concurrent accesses to same row:
dram[0]:        54        56        36        34        26        24        37        24        44        36        22        15        45        30        33        21 
dram[1]:        52        54        34        32        20        22        32        36        25        28        26        33        30        28        18        20 
dram[2]:        62        62        54        56        30        28        28        35        26        26        30        57        62        44        22        25 
dram[3]:        58        60        54        56        24        28        35        38        41        22        78        45        75        63        20        42 
dram[4]:        62        64        56        52        32        28        36        22        29        22        52        19        43        37        24        39 
dram[5]:        58        60        56        48        26        30        24        37        49        26        29        42        83        28        22        52 
maximum service time to same row:
dram[0]:     29627     28131     47794     41175     43454     24190     65641     43974     25317     24987     56373     39165     60978     60828     53572     27550 
dram[1]:     29372     22122     22232     70616     24485     35913     24341     26225     18279     26184     49161     48518     55662     54814     37948     45266 
dram[2]:     49278     30654     22089     58401     30616     49401     13250     37878     33366     34231     30361     36517     30352     29014     35896     54277 
dram[3]:     40945     28043     17797     65750     56628     45900     30609     25555     37310     46810     54549     48124     37169     28839     70410     30525 
dram[4]:     16718     44325     70844     26883     38254     33322     47040     17562     26337     40300     47683     31582     30073     38362     51238     33685 
dram[5]:     40992     28825     51522     48908     31015     58268     20807     28624     24712     38598     52638     51081     30363     39794     55591     51488 
average row accesses per activate:
dram[0]:  7.545455  7.965517  6.656250  5.794872  4.518518  3.282051  5.566038  4.382353  5.576923  4.473684  4.703704  4.701755  6.710526  6.000000  5.560976  6.361111 
dram[1]:  5.837209  6.500000  5.512195  5.885714  4.016667  3.947368  3.650602  4.633333  4.444445  4.660714  5.208333  5.100000  5.367347  5.568182  4.596154  6.235294 
dram[2]:  8.925926 15.066667 10.238095 10.750000  4.250000  4.339286  3.588889  5.812500  4.800000  4.716667  5.711111  5.568182  6.225000  6.222222  7.281250  7.133333 
dram[3]:  6.333333  7.965517 11.529411 10.619047  4.604651  4.116667  4.573771  4.323529  6.300000  5.777778  7.205883  5.604651  6.361111  6.190476  6.741935  5.333333 
dram[4]:  7.264706 17.307692 11.000000  5.780488  3.901639  3.746269  4.704918  4.671875  6.022222  5.060000  6.125000  4.740741  6.682927  5.122449  6.305555  5.304348 
dram[5]:  8.846154  9.230769  9.000000  5.400000  3.843750  4.370370  3.637500  4.948276  6.341464  4.253731  5.039216  6.694445  6.948718  6.500000  6.314286  5.042553 
average row locality = 23852/4356 = 5.475666
number of total memory accesses made:
dram[0]:         0         0         0         0         0         0         0         0         0         0         0         0         0         0         0         0 
dram[1]:         0         0         0         0         0         0         0         0         0         0         0         0         0         0         0         0 
dram[2]:         0         0         0         0         0         0         0         0         0         0         0         0         0         0         0         0 
dram[3]:         0         0         0         0         0         0         0         0         0         0         0         0         0         0         0         0 
dram[4]:         0         0         0         0         0         0         0         0         0         0         0         0         0         0         0         0 
dram[5]:         0         0         0         0         0         0         0         0         0         0         0         0         0         0         0         0 
total accesses: 0
min_bank_accesses = 0!
min_chip_accesses = 0!
number of total read accesses:
dram[0]:       115       102        92        97        98       106       118       120       123       117       111       121       112       114       104       104 
dram[1]:       113       100        97        86       101        92       126       112       126       118       107       111       116       113       106       100 
dram[2]:       106       102        93        91        99        97       134       115       122       124       115       109       115       121       105       100 
dram[3]:       102       102        84        94        79       101       114       124       114       119       107       107       108       117        98       102 
dram[4]:       108       102        95       100        97       102       116       123       122       116       108       116       120       114       104       112 
dram[5]:        99       110        94        91       103        94       118       115       119       125       112       109       120       120       102       109 
total reads: 10393
bank skew: 134/79 = 1.70
chip skew: 1755/1672 = 1.05
number of total write accesses:
dram[0]:       134       129       121       129       146       150       177       178       167       138       143       147       143       138       124       125 
dram[1]:       138       134       129       120       140       133       177       166       154       143       143       144       147       132       133       112 
dram[2]:       135       124       122       124       139       146       189       164       142       159       142       136       134       159       128       114 
dram[3]:       126       129       112       129       119       146       165       170       138       141       138       134       121       143       111       122 
dram[4]:       139       123       125       137       141       149       171       176       149       137       137       140       154       137       123       132 
dram[5]:       131       130       122       125       143       142       173       172       141       160       145       132       151       140       119       128 
total reads: 13459
bank skew: 189/111 = 1.70
chip skew: 2289/2144 = 1.07
average mf latency per bank:
dram[0]:        557       499       643       559       615       561       698       584       598       673       676       663       690       664       607       630
dram[1]:        506       472       553       578       556       623       582       597       552       611       631       630       618       615       537       657
dram[2]:        541       570       664       631       657       651       569       694       666       588       651       700       689       597       624       685
dram[3]:        507       513       682       582       673       562       595       575       616       602       626       655       665       604       662       581
dram[4]:        498       543       636       575       628       642       653       633       658       653       655       693       652       666       622       618
dram[5]:        479       505       614       560       527       604       549       572       644       517       568       646       590       589       585       571
maximum mf latency per bank:
dram[0]:       1293      1002      1676      1197      1363      1246      1436      1223      1354      1238      1300      1170      1424      1291      1230      1128
dram[1]:        914      1006      1318      1232      1097      1194      1045      1048      1033       997      1067      1015       960       939       997      1089
dram[2]:       1316      1333      1735      1723      1548      1584      1584      1442      1432      1494      1290      1221      1328      1442      1382      1319
dram[3]:       1138      1370      1537      1697      1341      1619      1117      1455      1075      1072       991      1106      1029      1192      1153      1087
dram[4]:       1393      1510      1827      1821      1698      1698      1689      1761      1615      1426      1322      1302      1365      1197      1231      1358
dram[5]:       1374      1347      1776      1558      1604      1693      1447      1507      1206      1027      1112      1036      1117      1110      1102      1070

Number of Memory Banks Accessed per Memory Operation per Warp (from 0):
0	0	0	0	0	0	0	0	0	0	0	0	0	0	0	0	0	0	0	0	0	0	0	0	0	0	0	0	0	0	0	0	0	0	0	0	0	0	0	0	0	0	0	0	0	0	0	0	0	0	0	0	0	0	0	0	0	0	0	0	0	0	0	0	0	0	0	0	0	0	0	0	0	0	0	0	0	0	0	0	0	0	0	0	0	0	0	0	0	0	0	0	0	0	0	0	
Average # of Memory Banks Accessed per Memory Operation per Warp=-nan

position of mrq chosen
0	0	0	0	0	0	0	0	0	0	0	0	0	0	0	0	

average position of mrq chosen = -nan
Memory Partition 0: 
Cache L2_bank_000:
MSHR contents

Cache L2_bank_001:
MSHR contents

In Dram Latency Queue (total = 0): 
DRAM[0]: 16 bks, busW=4 BL=8 CL=12, tRRD=2 tCCD=6, tRCD=12 tRAS=28 tRP=12 tRC=40
n_cmd=183824 n_nop=174722 n_act=763 n_pre=747 n_req=4043 n_rd=3508 n_write=4084 bw_util=0.0826
n_activity=36371 dram_eff=0.4175
bk0: 230a 176980i bk1: 204a 177568i bk2: 184a 176781i bk3: 194a 176387i bk4: 196a 174692i bk5: 212a 174581i bk6: 236a 173467i bk7: 240a 173180i bk8: 246a 175341i bk9: 234a 175424i bk10: 222a 175114i bk11: 242a 175129i bk12: 224a 175418i bk13: 228a 175368i bk14: 208a 176314i bk15: 208a 176715i 
dram_util_bins: 0 0 0 0 0 0 0 0 0 0
dram_eff_bins: 0 0 0 0 0 0 0 0 0 0
mrqq: max=16 avg=1.18945
Memory Partition 1: 
Cache L2_bank_002:
MSHR contents

Cache L2_bank_003:
MSHR contents

In Dram Latency Queue (total = 0): 
DRAM[1]: 16 bks, busW=4 BL=8 CL=12, tRRD=2 tCCD=6, tRCD=12 tRAS=28 tRP=12 tRC=40
n_cmd=183824 n_nop=174763 n_act=811 n_pre=795 n_req=3969 n_rd=3448 n_write=4007 bw_util=0.08111
n_activity=36246 dram_eff=0.4114
bk0: 226a 176818i bk1: 200a 177629i bk2: 194a 176269i bk3: 172a 177052i bk4: 202a 175109i bk5: 184a 174912i bk6: 252a 173151i bk7: 224a 174020i bk8: 252a 174929i bk9: 236a 175292i bk10: 214a 175137i bk11: 222a 175623i bk12: 232a 175208i bk13: 226a 175479i bk14: 212a 176413i bk15: 200a 177163i 
dram_util_bins: 0 0 0 0 0 0 0 0 0 0
dram_eff_bins: 0 0 0 0 0 0 0 0 0 0
mrqq: max=16 avg=1.06594
Memory Partition 2: 
Cache L2_bank_004:
MSHR contents

Cache L2_bank_005:
MSHR contents

In Dram Latency Queue (total = 0): 
DRAM[2]: 16 bks, busW=4 BL=8 CL=12, tRRD=2 tCCD=6, tRCD=12 tRAS=28 tRP=12 tRC=40
n_cmd=183824 n_nop=174948 n_act=684 n_pre=668 n_req=4005 n_rd=3496 n_write=4028 bw_util=0.08186
n_activity=36300 dram_eff=0.4145
bk0: 212a 177509i bk1: 204a 177918i bk2: 186a 177346i bk3: 182a 177607i bk4: 198a 175486i bk5: 194a 175058i bk6: 268a 172625i bk7: 230a 173994i bk8: 244a 175777i bk9: 248a 174953i bk10: 230a 175004i bk11: 218a 175860i bk12: 230a 175233i bk13: 242a 174673i bk14: 210a 176455i bk15: 200a 176753i 
dram_util_bins: 0 0 0 0 0 0 0 0 0 0
dram_eff_bins: 0 0 0 0 0 0 0 0 0 0
mrqq: max=16 avg=1.21348
Memory Partition 3: 
Cache L2_bank_006:
MSHR contents

Cache L2_bank_007:
MSHR contents

In Dram Latency Queue (total = 0): 
DRAM[3]: 16 bks, busW=4 BL=8 CL=12, tRRD=2 tCCD=6, tRCD=12 tRAS=28 tRP=12 tRC=40
n_cmd=183824 n_nop=175384 n_act=648 n_pre=632 n_req=3816 n_rd=3344 n_write=3816 bw_util=0.0779
n_activity=33895 dram_eff=0.4225
bk0: 204a 177619i bk1: 204a 177451i bk2: 168a 177985i bk3: 188a 177465i bk4: 158a 176331i bk5: 202a 175599i bk6: 228a 174431i bk7: 248a 173823i bk8: 228a 175930i bk9: 238a 175570i bk10: 214a 176329i bk11: 214a 176249i bk12: 216a 176452i bk13: 234a 175832i bk14: 196a 177105i bk15: 204a 176807i 
dram_util_bins: 0 0 0 0 0 0 0 0 0 0
dram_eff_bins: 0 0 0 0 0 0 0 0 0 0
mrqq: max=16 avg=1.02987
Memory Partition 4: 
Cache L2_bank_008:
MSHR contents

Cache L2_bank_009:
MSHR contents

In Dram Latency Queue (total = 0): 
DRAM[4]: 16 bks, busW=4 BL=8 CL=12, tRRD=2 tCCD=6, tRCD=12 tRAS=28 tRP=12 tRC=40
n_cmd=183824 n_nop=174822 n_act=722 n_pre=706 n_req=4025 n_rd=3510 n_write=4064 bw_util=0.0824
n_activity=36751 dram_eff=0.4122
bk0: 216a 177356i bk1: 204a 177988i bk2: 190a 176708i bk3: 200a 176458i bk4: 194a 175209i bk5: 204a 174107i bk6: 232a 173263i bk7: 246a 173085i bk8: 244a 174890i bk9: 232a 175473i bk10: 216a 176094i bk11: 232a 175390i bk12: 240a 174546i bk13: 228a 175532i bk14: 208a 176747i bk15: 224a 176159i 
dram_util_bins: 0 0 0 0 0 0 0 0 0 0
dram_eff_bins: 0 0 0 0 0 0 0 0 0 0
mrqq: max=16 avg=1.19149
Memory Partition 5: 
Cache L2_bank_010:
MSHR contents

Cache L2_bank_011:
MSHR contents

In Dram Latency Queue (total = 0): 
DRAM[5]: 16 bks, busW=4 BL=8 CL=12, tRRD=2 tCCD=6, tRCD=12 tRAS=28 tRP=12 tRC=40
n_cmd=183824 n_nop=174872 n_act=728 n_pre=712 n_req=3994 n_rd=3480 n_write=4032 bw_util=0.08173
n_activity=36310 dram_eff=0.4138
bk0: 198a 177815i bk1: 220a 177201i bk2: 188a 176855i bk3: 182a 177056i bk4: 206a 175195i bk5: 188a 174964i bk6: 236a 173662i bk7: 230a 174279i bk8: 238a 175829i bk9: 250a 175275i bk10: 224a 175746i bk11: 218a 176343i bk12: 240a 175575i bk13: 240a 175035i bk14: 204a 176554i bk15: 218a 176765i 
dram_util_bins: 0 0 0 0 0 0 0 0 0 0
dram_eff_bins: 0 0 0 0 0 0 0 0 0 0
mrqq: max=16 avg=1.03077

========= L2 cache stats =========
L2_cache_bank[0]: Access = 5644, Miss = 873, Miss_rate = 0.155, Pending_hits = 117, Reservation_fails = 1116
L2_cache_bank[1]: Access = 5858, Miss = 881, Miss_rate = 0.150, Pending_hits = 76, Reservation_fails = 633
L2_cache_bank[2]: Access = 5619, Miss = 892, Miss_rate = 0.159, Pending_hits = 99, Reservation_fails = 564
L2_cache_bank[3]: Access = 5742, Miss = 832, Miss_rate = 0.145, Pending_hits = 84, Reservation_fails = 387
L2_cache_bank[4]: Access = 5489, Miss = 889, Miss_rate = 0.162, Pending_hits = 76, Reservation_fails = 597
L2_cache_bank[5]: Access = 5593, Miss = 859, Miss_rate = 0.154, Pending_hits = 101, Reservation_fails = 372
L2_cache_bank[6]: Access = 5695, Miss = 806, Miss_rate = 0.142, Pending_hits = 67, Reservation_fails = 519
L2_cache_bank[7]: Access = 5749, Miss = 866, Miss_rate = 0.151, Pending_hits = 86, Reservation_fails = 419
L2_cache_bank[8]: Access = 5636, Miss = 870, Miss_rate = 0.154, Pending_hits = 96, Reservation_fails = 788
L2_cache_bank[9]: Access = 5461, Miss = 885, Miss_rate = 0.162, Pending_hits = 70, Reservation_fails = 389
L2_cache_bank[10]: Access = 5695, Miss = 867, Miss_rate = 0.152, Pending_hits = 83, Reservation_fails = 592
L2_cache_bank[11]: Access = 5602, Miss = 873, Miss_rate = 0.156, Pending_hits = 81, Reservation_fails = 377
L2_total_cache_accesses = 67783
L2_total_cache_misses = 10393
L2_total_cache_miss_rate = 0.1533
L2_total_cache_pending_hits = 1036
L2_total_cache_reservation_fails = 6753
L2_total_cache_breakdown:
	L2_cache_stats_breakdown[GLOBAL_ACC_R][HIT] = 3606
	L2_cache_stats_breakdown[GLOBAL_ACC_R][HIT_RESERVED] = 13
	L2_cache_stats_breakdown[GLOBAL_ACC_R][MISS] = 87
	L2_cache_stats_breakdown[GLOBAL_ACC_R][RESERVATION_FAIL] = 7
	L2_cache_stats_breakdown[LOCAL_ACC_R][HIT] = 4345
	L2_cache_stats_breakdown[LOCAL_ACC_R][HIT_RESERVED] = 61
	L2_cache_stats_breakdown[LOCAL_ACC_R][MISS] = 198
	L2_cache_stats_breakdown[CONST_ACC_R][HIT] = 22
	L2_cache_stats_breakdown[CONST_ACC_R][HIT_RESERVED] = 6
	L2_cache_stats_breakdown[CONST_ACC_R][MISS] = 2
	L2_cache_stats_breakdown[CONST_ACC_R][RESERVATION_FAIL] = 353
	L2_cache_stats_breakdown[GLOBAL_ACC_W][HIT] = 5344
	L2_cache_stats_breakdown[GLOBAL_ACC_W][HIT_RESERVED] = 800
	L2_cache_stats_breakdown[GLOBAL_ACC_W][MISS] = 2048
	L2_cache_stats_breakdown[GLOBAL_ACC_W][RESERVATION_FAIL] = 96
	L2_cache_stats_breakdown[LOCAL_ACC_W][HIT] = 29322
	L2_cache_stats_breakdown[LOCAL_ACC_W][MISS] = 7574
	L2_cache_stats_breakdown[LOCAL_ACC_W][RESERVATION_FAIL] = 541
	L2_cache_stats_breakdown[L1_WRBK_ACC][HIT] = 1191
	L2_cache_stats_breakdown[L1_WRBK_ACC][MISS] = 431
	L2_cache_stats_breakdown[L1_WRBK_ACC][RESERVATION_FAIL] = 1
	L2_cache_stats_breakdown[INST_ACC_R][HIT] = 12524
	L2_cache_stats_breakdown[INST_ACC_R][HIT_RESERVED] = 156
	L2_cache_stats_breakdown[INST_ACC_R][MISS] = 53
	L2_cache_stats_breakdown[INST_ACC_R][RESERVATION_FAIL] = 5755
L2_cache_data_port_util = 0.128
L2_cache_fill_port_util = 0.025

icnt_total_pkts_mem_to_simt=150393
icnt_total_pkts_simt_to_mem=235695
LD_mem_lat_dist  0 0 0 0 0 0 0 0 0 0 0 0 0 0 0 0 0 0 0 0 0 0 0 0 0 0 0
ST_mem_lat_dist  0 0 0 0 0 0 0 0 0 0 0 0 0 0 0 0 0 0 0 0 0 0 0 0 0 0 0
----------------------------Interconnect-DETAILS--------------------------------
Class 0:
Packet latency average = 17.5091
	minimum = 6
	maximum = 630
Network latency average = 13.7857
	minimum = 6
	maximum = 582
Slowest packet = 1359
Flit latency average = 13.1238
	minimum = 6
	maximum = 578
Slowest flit = 5056
Fragmentation average = 0.127195
	minimum = 0
	maximum = 553
Injected packet rate average = 0.035623
	minimum = 0.0306762 (at node 7)
	maximum = 0.0407365 (at node 16)
Accepted packet rate average = 0.035623
	minimum = 0.0296422 (at node 12)
	maximum = 0.0420649 (at node 16)
Injected flit rate average = 0.102682
	minimum = 0.0838282 (at node 19)
	maximum = 0.123423 (at node 6)
Accepted flit rate average= 0.102682
	minimum = 0.0633918 (at node 0)
	maximum = 0.144728 (at node 16)
Injected packet length average = 2.88246
Accepted packet length average = 2.88246
Total in-flight flits = 0 (0 measured)
====== Overall Traffic Statistics ======
====== Traffic class 0 ======
Packet latency average = 17.5091 (1 samples)
	minimum = 6 (1 samples)
	maximum = 630 (1 samples)
Network latency average = 13.7857 (1 samples)
	minimum = 6 (1 samples)
	maximum = 582 (1 samples)
Flit latency average = 13.1238 (1 samples)
	minimum = 6 (1 samples)
	maximum = 578 (1 samples)
Fragmentation average = 0.127195 (1 samples)
	minimum = 0 (1 samples)
	maximum = 553 (1 samples)
Injected packet rate average = 0.035623 (1 samples)
	minimum = 0.0306762 (1 samples)
	maximum = 0.0407365 (1 samples)
Accepted packet rate average = 0.035623 (1 samples)
	minimum = 0.0296422 (1 samples)
	maximum = 0.0420649 (1 samples)
Injected flit rate average = 0.102682 (1 samples)
	minimum = 0.0838282 (1 samples)
	maximum = 0.123423 (1 samples)
Accepted flit rate average = 0.102682 (1 samples)
	minimum = 0.0633918 (1 samples)
	maximum = 0.144728 (1 samples)
Injected packet size average = 2.88246 (1 samples)
Accepted packet size average = 2.88246 (1 samples)
Hops average = 1 (1 samples)
----------------------------END-of-Interconnect-DETAILS-------------------------


gpgpu_simulation_time = 0 days, 0 hrs, 2 min, 31 sec (151 sec)
gpgpu_simulation_rate = 415116 (inst/sec)
gpgpu_simulation_rate = 922 (cycle/sec)
GPGPU-Sim: synchronize waiting for inactive GPU simulation
GPGPU-Sim API: Stream Manager State
GPGPU-Sim: detected inactive GPU simulation thread

checksum=75ef40cb5b8e
Kernel Time: 150131.203125 
