

        *** GPGPU-Sim Simulator Version 3.2.2  [build 0] ***


GPGPU-Sim PTX: simulation mode 0 (can change with PTX_SIM_MODE_FUNC environment variable:
               1=functional simulation only, 0=detailed performance simulator)
GPGPU-Sim: Configuration options:

-network_mode                           1 # Interconnection network mode
-inter_config_file   config_fermi_islip.icnt # Interconnection network config file
-gpgpu_ptx_use_cuobjdump                    1 # Use cuobjdump to extract ptx and sass from binaries
-gpgpu_experimental_lib_support                    0 # Try to extract code from cuda libraries [Broken because of unknown cudaGetExportTable]
-gpgpu_ptx_convert_to_ptxplus                    0 # Convert SASS (native ISA) to ptxplus and run ptxplus
-gpgpu_ptx_force_max_capability                   20 # Force maximum compute capability
-gpgpu_ptx_inst_debug_to_file                    0 # Dump executed instructions' debug information to file
-gpgpu_ptx_inst_debug_file       inst_debug.txt # Executed instructions' debug output file
-gpgpu_ptx_inst_debug_thread_uid                    1 # Thread UID for executed instructions' debug output
-gpgpu_simd_model                       1 # 1 = post-dominator
-gpgpu_shader_core_pipeline              1536:32 # shader core pipeline config, i.e., {<nthread>:<warpsize>}
-gpgpu_tex_cache:l1  4:128:24,L:R:m:N:L,F:128:4,128:2 # per-shader L1 texture cache  (READ-ONLY) config  {<nsets>:<bsize>:<assoc>,<rep>:<wr>:<alloc>:<wr_alloc>,<mshr>:<N>:<merge>,<mq>:<rf>}
-gpgpu_const_cache:l1 64:64:2,L:R:f:N:L,A:2:32,4 # per-shader L1 constant memory cache  (READ-ONLY) config  {<nsets>:<bsize>:<assoc>,<rep>:<wr>:<alloc>:<wr_alloc>,<mshr>:<N>:<merge>,<mq>} 
-gpgpu_cache:il1     4:128:4,L:R:f:N:L,A:2:32,4 # shader L1 instruction cache config  {<nsets>:<bsize>:<assoc>,<rep>:<wr>:<alloc>:<wr_alloc>,<mshr>:<N>:<merge>,<mq>} 
-gpgpu_cache:dl1     32:128:4,L:L:m:N:H,A:32:8,8 # per-shader L1 data cache config  {<nsets>:<bsize>:<assoc>,<rep>:<wr>:<alloc>:<wr_alloc>,<mshr>:<N>:<merge>,<mq> | none}
-gpgpu_cache:dl1PrefL1                 none # per-shader L1 data cache config  {<nsets>:<bsize>:<assoc>,<rep>:<wr>:<alloc>:<wr_alloc>,<mshr>:<N>:<merge>,<mq> | none}
-gpgpu_cache:dl1PreShared                 none # per-shader L1 data cache config  {<nsets>:<bsize>:<assoc>,<rep>:<wr>:<alloc>:<wr_alloc>,<mshr>:<N>:<merge>,<mq> | none}
-gmem_skip_L1D                          0 # global memory access skip L1D cache (implements -Xptxas -dlcm=cg, default=no skip)
-gpgpu_perfect_mem                      0 # enable perfect memory mode (no cache miss)
-n_regfile_gating_group                    4 # group of lanes that should be read/written together)
-gpgpu_clock_gated_reg_file                    0 # enable clock gated reg file for power calculations
-gpgpu_clock_gated_lanes                    0 # enable clock gated lanes for power calculations
-gpgpu_shader_registers                32768 # Number of registers per shader core. Limits number of concurrent CTAs. (default 8192)
-gpgpu_shader_cta                       8 # Maximum number of concurrent CTAs in shader (default 8)
-gpgpu_num_cta_barriers                   16 # Maximum number of named barriers per CTA (default 16)
-gpgpu_n_clusters                      15 # number of processing clusters
-gpgpu_n_cores_per_cluster                    1 # number of simd cores per cluster
-gpgpu_n_cluster_ejection_buffer_size                    8 # number of packets in ejection buffer
-gpgpu_n_ldst_response_buffer_size                    2 # number of response packets in ld/st unit ejection buffer
-gpgpu_shmem_size                   16384 # Size of shared memory per shader core (default 16kB)
-gpgpu_shmem_size                   49152 # Size of shared memory per shader core (default 16kB)
-gpgpu_shmem_size_PrefL1                16384 # Size of shared memory per shader core (default 16kB)
-gpgpu_shmem_size_PrefShared                16384 # Size of shared memory per shader core (default 16kB)
-gpgpu_shmem_num_banks                   32 # Number of banks in the shared memory in each shader core (default 16)
-gpgpu_shmem_limited_broadcast                    0 # Limit shared memory to do one broadcast per cycle (default on)
-gpgpu_shmem_warp_parts                    1 # Number of portions a warp is divided into for shared memory bank conflict check 
-gpgpu_warpdistro_shader                   -1 # Specify which shader core to collect the warp size distribution from
-gpgpu_warp_issue_shader                    0 # Specify which shader core to collect the warp issue distribution from
-gpgpu_local_mem_map                    1 # Mapping from local memory space address to simulated GPU physical address space (default = enabled)
-gpgpu_num_reg_banks                   16 # Number of register banks (default = 8)
-gpgpu_reg_bank_use_warp_id                    0 # Use warp ID in mapping registers to banks (default = off)
-gpgpu_operand_collector_num_units_sp                    6 # number of collector units (default = 4)
-gpgpu_operand_collector_num_units_sfu                    8 # number of collector units (default = 4)
-gpgpu_operand_collector_num_units_mem                    2 # number of collector units (default = 2)
-gpgpu_operand_collector_num_units_gen                    0 # number of collector units (default = 0)
-gpgpu_operand_collector_num_in_ports_sp                    2 # number of collector unit in ports (default = 1)
-gpgpu_operand_collector_num_in_ports_sfu                    1 # number of collector unit in ports (default = 1)
-gpgpu_operand_collector_num_in_ports_mem                    1 # number of collector unit in ports (default = 1)
-gpgpu_operand_collector_num_in_ports_gen                    0 # number of collector unit in ports (default = 0)
-gpgpu_operand_collector_num_out_ports_sp                    2 # number of collector unit in ports (default = 1)
-gpgpu_operand_collector_num_out_ports_sfu                    1 # number of collector unit in ports (default = 1)
-gpgpu_operand_collector_num_out_ports_mem                    1 # number of collector unit in ports (default = 1)
-gpgpu_operand_collector_num_out_ports_gen                    0 # number of collector unit in ports (default = 0)
-gpgpu_coalesce_arch                   13 # Coalescing arch (default = 13, anything else is off for now)
-gpgpu_num_sched_per_core                    2 # Number of warp schedulers per core
-gpgpu_max_insn_issue_per_warp                    1 # Max number of instructions that can be issued per warp in one cycle by scheduler
-gpgpu_simt_core_sim_order                    1 # Select the simulation order of cores in a cluster (0=Fix, 1=Round-Robin)
-gpgpu_pipeline_widths        2,1,1,2,1,1,2 # Pipeline widths ID_OC_SP,ID_OC_SFU,ID_OC_MEM,OC_EX_SP,OC_EX_SFU,OC_EX_MEM,EX_WB
-gpgpu_num_sp_units                     2 # Number of SP units (default=1)
-gpgpu_num_sfu_units                    1 # Number of SF units (default=1)
-gpgpu_num_mem_units                    1 # Number if ldst units (default=1) WARNING: not hooked up to anything
-gpgpu_scheduler                      gto # Scheduler configuration: < lrr | gto | two_level_active > If two_level_active:<num_active_warps>:<inner_prioritization>:<outer_prioritization>For complete list of prioritization values see shader.h enum scheduler_prioritization_typeDefault: gto
-gpgpu_dram_scheduler                    1 # 0 = fifo, 1 = FR-FCFS (defaul)
-gpgpu_dram_partition_queues              8:8:8:8 # i2$:$2d:d2$:$2i
-l2_ideal                               0 # Use a ideal L2 cache that always hit
-gpgpu_cache:dl2     64:128:8,L:B:m:W:L,A:32:4,4:0,32 # unified banked L2 data cache config  {<nsets>:<bsize>:<assoc>,<rep>:<wr>:<alloc>:<wr_alloc>,<mshr>:<N>:<merge>,<mq>}
-gpgpu_cache:dl2_texture_only                    0 # L2 cache used for texture only
-gpgpu_n_mem                            6 # number of memory modules (e.g. memory controllers) in gpu
-gpgpu_n_sub_partition_per_mchannel                    2 # number of memory subpartition in each memory module
-gpgpu_n_mem_per_ctrlr                    2 # number of memory chips per memory controller
-gpgpu_memlatency_stat                   14 # track and display latency statistics 0x2 enables MC, 0x4 enables queue logs
-gpgpu_frfcfs_dram_sched_queue_size                   16 # 0 = unlimited (default); # entries per chip
-gpgpu_dram_return_queue_size                  116 # 0 = unlimited (default); # entries per chip
-gpgpu_dram_buswidth                    4 # default = 4 bytes (8 bytes per cycle at DDR)
-gpgpu_dram_burst_length                    4 # Burst length of each DRAM request (default = 4 data bus cycle)
-dram_data_command_freq_ratio                    2 # Frequency ratio between DRAM data bus and command bus (default = 2 times, i.e. DDR)
-gpgpu_dram_timing_opt nbk=16:CCD=2:RRD=6:RCD=12:RAS=28:RP=12:RC=40: CL=12:WL=4:CDLR=5:WR=12:nbkgrp=4:CCDL=3:RTPL=2 # DRAM timing parameters = {nbk:tCCD:tRRD:tRCD:tRAS:tRP:tRC:CL:WL:tCDLR:tWR:nbkgrp:tCCDL:tRTPL}
-rop_latency                          120 # ROP queue latency (default 85)
-dram_latency                         100 # DRAM latency (default 30)
-gpgpu_mem_addr_mapping dramid@8;00000000.00000000.00000000.00000000.0000RRRR.RRRRRRRR.BBBCCCCB.CCSSSSSS # mapping memory address to dram model {dramid@<start bit>;<memory address map>}
-gpgpu_mem_addr_test                    0 # run sweep test to check address mapping for aliased address
-gpgpu_mem_address_mask                    1 # 0 = old addressing mask, 1 = new addressing mask, 2 = new add. mask + flipped bank sel and chip sel bits
-gpuwattch_xml_file  gpuwattch_gtx480.xml # GPUWattch XML file
-power_simulation_enabled                    0 # Turn on power simulator (1=On, 0=Off)
-power_per_cycle_dump                    0 # Dump detailed power output each cycle
-power_trace_enabled                    0 # produce a file for the power trace (1=On, 0=Off)
-power_trace_zlevel                     6 # Compression level of the power trace output log (0=no comp, 9=highest)
-steady_power_levels_enabled                    0 # produce a file for the steady power levels (1=On, 0=Off)
-steady_state_definition                  8:4 # allowed deviation:number of samples
-gpgpu_max_cycle                        0 # terminates gpu simulation early (0 = no limit)
-gpgpu_max_insn                         0 # terminates gpu simulation early (0 = no limit)
-gpgpu_max_cta                          0 # terminates gpu simulation early (0 = no limit)
-gpgpu_runtime_stat                   500 # display runtime statistics such as dram utilization {<freq>:<flag>}
-liveness_message_freq                    1 # Minimum number of seconds between simulation liveness messages (0 = always print)
-gpgpu_flush_l1_cache                    0 # Flush L1 cache at the end of each kernel call
-gpgpu_flush_l2_cache                    0 # Flush L2 cache at the end of each kernel call
-gpgpu_deadlock_detect                    1 # Stop the simulation at deadlock (1=on (default), 0=off)
-gpgpu_ptx_instruction_classification                    0 # if enabled will classify ptx instruction types per kernel (Max 255 kernels now)
-gpgpu_ptx_sim_mode                     0 # Select between Performance (default) or Functional simulation (1)
-gpgpu_clock_domains 700.0:700.0:700.0:924.0 # Clock Domain Frequencies in MhZ {<Core Clock>:<ICNT Clock>:<L2 Clock>:<DRAM Clock>}
-gpgpu_max_concurrent_kernel                    8 # maximum kernels that can run concurrently on GPU
-gpgpu_cflog_interval                    0 # Interval between each snapshot in control flow logger
-visualizer_enabled                     0 # Turn on visualizer output (1=On, 0=Off)
-visualizer_outputfile                 NULL # Specifies the output log file for visualizer
-visualizer_zlevel                      6 # Compression level of the visualizer output log (0=no comp, 9=highest)
-trace_enabled                          0 # Turn on traces
-trace_components                    none # comma seperated list of traces to enable. Complete list found in trace_streams.tup. Default none
-trace_sampling_core                    0 # The core which is printed using CORE_DPRINTF. Default 0
-trace_sampling_memory_partition                   -1 # The memory partition which is printed using MEMPART_DPRINTF. Default -1 (i.e. all)
-enable_ptx_file_line_stats                    1 # Turn on PTX source line statistic profiling. (1 = On)
-ptx_line_stats_filename gpgpu_inst_stats.txt # Output file for PTX source line statistics.
-save_embedded_ptx                      0 # saves ptx files embedded in binary as <n>.ptx
-keep                                   0 # keep intermediate files created by GPGPU-Sim when interfacing with external programs
-gpgpu_ptx_save_converted_ptxplus                    0 # Saved converted ptxplus to a file
-ptx_opcode_latency_int         4,13,4,5,145 # Opcode latencies for integers <ADD,MAX,MUL,MAD,DIV>Default 1,1,19,25,145
-ptx_opcode_latency_fp          4,13,4,5,39 # Opcode latencies for single precision floating points <ADD,MAX,MUL,MAD,DIV>Default 1,1,1,1,30
-ptx_opcode_latency_dp         8,19,8,8,330 # Opcode latencies for double precision floating points <ADD,MAX,MUL,MAD,DIV>Default 8,8,8,8,335
-ptx_opcode_initiation_int            1,2,2,1,8 # Opcode initiation intervals for integers <ADD,MAX,MUL,MAD,DIV>Default 1,1,4,4,32
-ptx_opcode_initiation_fp            1,2,1,1,4 # Opcode initiation intervals for single precision floating points <ADD,MAX,MUL,MAD,DIV>Default 1,1,1,1,5
-ptx_opcode_initiation_dp         8,16,8,8,130 # Opcode initiation intervals for double precision floating points <ADD,MAX,MUL,MAD,DIV>Default 8,8,8,8,130
DRAM Timing Options:
nbk                                    16 # number of banks
CCD                                     2 # column to column delay
RRD                                     6 # minimal delay between activation of rows in different banks
RCD                                    12 # row to column delay
RAS                                    28 # time needed to activate row
RP                                     12 # time needed to precharge (deactivate) row
RC                                     40 # row cycle time
CDLR                                    5 # switching from write to read (changes tWTR)
WR                                     12 # last data-in to row precharge
CL                                     12 # CAS latency
WL                                      4 # Write latency
nbkgrp                                  4 # number of bank groups
CCDL                                    3 # column to column delay between accesses to different bank groups
RTPL                                    2 # read to precharge delay between accesses to different bank groups
Total number of memory sub partition = 12
addr_dec_mask[CHIP]  = 0000000000000000 	high:64 low:0
addr_dec_mask[BK]    = 000000000000e100 	high:16 low:8
addr_dec_mask[ROW]   = 000000000fff0000 	high:28 low:16
addr_dec_mask[COL]   = 0000000000001eff 	high:13 low:0
addr_dec_mask[BURST] = 000000000000003f 	high:6 low:0
sub_partition_id_mask = 0000000000000100
GPGPU-Sim uArch: clock freqs: 700000000.000000:700000000.000000:700000000.000000:924000000.000000
GPGPU-Sim uArch: clock periods: 0.00000000142857142857:0.00000000142857142857:0.00000000142857142857:0.00000000108225108225
*** Initializing Memory Statistics ***
GPGPU-Sim uArch: interconnect node map (shaderID+MemID to icntID)
GPGPU-Sim uArch: Memory nodes ID start from index: 15
GPGPU-Sim uArch:    0   1   2   3   4
GPGPU-Sim uArch:    5   6   7   8   9
GPGPU-Sim uArch:   10  11  12  13  14
GPGPU-Sim uArch:   15  16  17  18  19
GPGPU-Sim uArch:   20  21  22  23  24
GPGPU-Sim uArch:   25  26
GPGPU-Sim uArch: interconnect node reverse map (icntID to shaderID+MemID)
GPGPU-Sim uArch: Memory nodes start from ID: 15
GPGPU-Sim uArch:    0   1   2   3   4
GPGPU-Sim uArch:    5   6   7   8   9
GPGPU-Sim uArch:   10  11  12  13  14
GPGPU-Sim uArch:   15  16  17  18  19
GPGPU-Sim uArch:   20  21  22  23  24
GPGPU-Sim uArch:   25  26
316bcbff5f8f022bb22b20bb4721e93e  /sciclone/data20/adwait/applications/benchmarks/CUDA/RAY/gpgpu_ptx_sim__RAY
GPGPU-Sim uArch: performance model initialization complete.
GPGPU-Sim PTX: __cudaRegisterFatBinary, fat_cubin_handle = 1, filename=rayTracing.cu
self exe links to: /sciclone/data20/adwait/applications/benchmarks/CUDA/RAY/gpgpu_ptx_sim__RAY
Running md5sum using "md5sum /sciclone/data20/adwait/applications/benchmarks/CUDA/RAY/gpgpu_ptx_sim__RAY "
Parsing file _cuobjdump_complete_output_0CWFUU
######### cuobjdump parser ########
## Adding new section ELF
Adding arch: sm_20
Adding identifier: rayTracing.cu
## Adding new section PTX
Adding ptx filename: _cuobjdump_1.ptx
Adding arch: sm_20
Adding identifier: rayTracing.cu
Done parsing!!!
GPGPU-Sim PTX: __cudaRegisterFunction _Z6renderPjP4Nodejjff : hostFun 0x0x40ce13, fat_cubin_handle = 1
GPGPU-Sim PTX: allocating stack frame region for .param "__cudaretf__Zmi6float3S_" from 0x0 to 0xc
GPGPU-Sim PTX: allocating stack frame region for .param "__cudaparmf1__Zmi6float3S_" from 0xc to 0x18
GPGPU-Sim PTX: allocating stack frame region for .param "__cudaparmf2__Zmi6float3S_" from 0x18 to 0x24
GPGPU-Sim PTX: allocating stack frame region for .param "__cudaretf__Z9normalize6float3" from 0x0 to 0xc
GPGPU-Sim PTX: allocating stack frame region for .param "__cudaparmf1__Z9normalize6float3" from 0xc to 0x18
GPGPU-Sim PTX: allocating stack frame region for .param "__cudaretf__Z18intersectionSphere5Rayon6float3f" from 0x0 to 0x4
GPGPU-Sim PTX: allocating stack frame region for .param "__cudaparmf1__Z18intersectionSphere5Rayon6float3f" from 0x4 to 0x1c
GPGPU-Sim PTX: allocating stack frame region for .param "__cudaparmf2__Z18intersectionSphere5Rayon6float3f" from 0x1c to 0x28
GPGPU-Sim PTX: allocating stack frame region for .param "__cudaparmf3__Z18intersectionSphere5Rayon6float3f" from 0x28 to 0x2c
GPGPU-Sim PTX: allocating stack frame region for .param "__cudaretf__Z16intersectionPlan5Rayon6float3S0_" from 0x0 to 0x4
GPGPU-Sim PTX: allocating stack frame region for .param "__cudaparmf1__Z16intersectionPlan5Rayon6float3S0_" from 0x4 to 0x1c
GPGPU-Sim PTX: allocating stack frame region for .param "__cudaparmf2__Z16intersectionPlan5Rayon6float3S0_" from 0x1c to 0x28
GPGPU-Sim PTX: allocating stack frame region for .param "__cudaparmf3__Z16intersectionPlan5Rayon6float3S0_" from 0x28 to 0x34
GPGPU-Sim PTX: allocating stack frame region for .param "__cudaretf__Z10getNormale6float3S_" from 0x0 to 0xc
GPGPU-Sim PTX: allocating stack frame region for .param "__cudaparmf1__Z10getNormale6float3S_" from 0xc to 0x18
GPGPU-Sim PTX: allocating stack frame region for .param "__cudaparmf2__Z10getNormale6float3S_" from 0x18 to 0x24
GPGPU-Sim PTX: allocating stack frame region for .param "__cudaretf__Z11getNormaleP6float3" from 0x0 to 0xc
GPGPU-Sim PTX: allocating stack frame region for .param "__cudaparmf1__Z11getNormaleP6float3" from 0xc to 0x18
GPGPU-Sim PTX: allocating stack frame region for .param "__cudaretf__Z14rgbaFloatToInt6float4" from 0x0 to 0x4
GPGPU-Sim PTX: allocating stack frame region for .param "__cudaparmf1__Z14rgbaFloatToInt6float4" from 0x4 to 0x14
GPGPU-Sim PTX: allocating stack frame region for .param "__cudaretf__Z12notShadowRayP4Node6float3S1_f" from 0x0 to 0x4
GPGPU-Sim PTX: allocating stack frame region for .param "__cudaparmf1__Z12notShadowRayP4Node6float3S1_f" from 0x4 to 0xc
GPGPU-Sim PTX: allocating stack frame region for .param "__cudaparmf2__Z12notShadowRayP4Node6float3S1_f" from 0xc to 0x18
GPGPU-Sim PTX: allocating stack frame region for .param "__cudaparmf3__Z12notShadowRayP4Node6float3S1_f" from 0x18 to 0x24
GPGPU-Sim PTX: allocating stack frame region for .param "__cudaparmf4__Z12notShadowRayP4Node6float3S1_f" from 0x24 to 0x28
GPGPU-Sim PTX: allocating stack frame region for .param "__cudaretf__Z15float2int_pow20f" from 0x0 to 0x4
GPGPU-Sim PTX: allocating stack frame region for .param "__cudaparmf1__Z15float2int_pow20f" from 0x4 to 0x8
GPGPU-Sim PTX: allocating stack frame region for .param "__cudaretf__Z15float2int_pow50f" from 0x0 to 0x4
GPGPU-Sim PTX: allocating stack frame region for .param "__cudaparmf1__Z15float2int_pow50f" from 0x4 to 0x8
GPGPU-Sim PTX: allocating stack frame region for .param "__cudaparmf1__ZN4dim3C1Ejjj" from 0x0 to 0x8
GPGPU-Sim PTX: allocating stack frame region for .param "__cudaparmf2__ZN4dim3C1Ejjj" from 0x8 to 0xc
GPGPU-Sim PTX: allocating stack frame region for .param "__cudaparmf3__ZN4dim3C1Ejjj" from 0xc to 0x10
GPGPU-Sim PTX: allocating stack frame region for .param "__cudaparmf4__ZN4dim3C1Ejjj" from 0x10 to 0x14
GPGPU-Sim PTX: instruction assembly for function '_Zmi6float3S_'...   done.
GPGPU-Sim PTX: finding reconvergence points for '_Zmi6float3S_'...
GPGPU-Sim PTX: Finding dominators for '_Zmi6float3S_'...
GPGPU-Sim PTX: Finding immediate dominators for '_Zmi6float3S_'...
GPGPU-Sim PTX: Finding postdominators for '_Zmi6float3S_'...
GPGPU-Sim PTX: Finding immediate postdominators for '_Zmi6float3S_'...
GPGPU-Sim PTX: pre-decoding instructions for '_Zmi6float3S_'...
GPGPU-Sim PTX: reconvergence points for _Zmi6float3S_...
GPGPU-Sim PTX: ... end of reconvergence points for _Zmi6float3S_
GPGPU-Sim PTX: ... done pre-decoding instructions for '_Zmi6float3S_'.
GPGPU-Sim PTX: instruction assembly for function '_Z9normalize6float3'...   done.
GPGPU-Sim PTX: finding reconvergence points for '_Z9normalize6float3'...
GPGPU-Sim PTX: Finding dominators for '_Z9normalize6float3'...
GPGPU-Sim PTX: Finding immediate dominators for '_Z9normalize6float3'...
GPGPU-Sim PTX: Finding postdominators for '_Z9normalize6float3'...
GPGPU-Sim PTX: Finding immediate postdominators for '_Z9normalize6float3'...
GPGPU-Sim PTX: pre-decoding instructions for '_Z9normalize6float3'...
GPGPU-Sim PTX: reconvergence points for _Z9normalize6float3...
GPGPU-Sim PTX: ... end of reconvergence points for _Z9normalize6float3
GPGPU-Sim PTX: ... done pre-decoding instructions for '_Z9normalize6float3'.
GPGPU-Sim PTX: instruction assembly for function '_Z18intersectionSphere5Rayon6float3f'...   done.
GPGPU-Sim PTX: finding reconvergence points for '_Z18intersectionSphere5Rayon6float3f'...
GPGPU-Sim PTX: Finding dominators for '_Z18intersectionSphere5Rayon6float3f'...
GPGPU-Sim PTX: Finding immediate dominators for '_Z18intersectionSphere5Rayon6float3f'...
GPGPU-Sim PTX: Finding postdominators for '_Z18intersectionSphere5Rayon6float3f'...
GPGPU-Sim PTX: Finding immediate postdominators for '_Z18intersectionSphere5Rayon6float3f'...
GPGPU-Sim PTX: pre-decoding instructions for '_Z18intersectionSphere5Rayon6float3f'...
GPGPU-Sim PTX: reconvergence points for _Z18intersectionSphere5Rayon6float3f...
GPGPU-Sim PTX:  1 (potential) branch divergence @  PC=0x250 (_1.ptx:173) @%p2 bra $Lt_2_3074;
GPGPU-Sim PTX:    immediate post dominator      @  PC=0x2c0 (_1.ptx:193) mov.f32 %f39, %f32;
GPGPU-Sim PTX:  2 (potential) branch divergence @  PC=0x260 (_1.ptx:175) bra.uni $Lt_2_2818;
GPGPU-Sim PTX:    immediate post dominator      @  PC=0x2c0 (_1.ptx:193) mov.f32 %f39, %f32;
GPGPU-Sim PTX:  3 (potential) branch divergence @  PC=0x280 (_1.ptx:180) @!%p3 bra $Lt_2_3586;
GPGPU-Sim PTX:    immediate post dominator      @  PC=0x2c0 (_1.ptx:193) mov.f32 %f39, %f32;
GPGPU-Sim PTX:  4 (potential) branch divergence @  PC=0x290 (_1.ptx:182) bra.uni $Lt_2_3330;
GPGPU-Sim PTX:    immediate post dominator      @  PC=0x2c0 (_1.ptx:193) mov.f32 %f39, %f32;
GPGPU-Sim PTX: ... end of reconvergence points for _Z18intersectionSphere5Rayon6float3f
GPGPU-Sim PTX: ... done pre-decoding instructions for '_Z18intersectionSphere5Rayon6float3f'.
GPGPU-Sim PTX: instruction assembly for function '_Z16intersectionPlan5Rayon6float3S0_'...   done.
GPGPU-Sim PTX: finding reconvergence points for '_Z16intersectionPlan5Rayon6float3S0_'...
GPGPU-Sim PTX: Finding dominators for '_Z16intersectionPlan5Rayon6float3S0_'...
GPGPU-Sim PTX: Finding immediate dominators for '_Z16intersectionPlan5Rayon6float3S0_'...
GPGPU-Sim PTX: Finding postdominators for '_Z16intersectionPlan5Rayon6float3S0_'...
GPGPU-Sim PTX: Finding immediate postdominators for '_Z16intersectionPlan5Rayon6float3S0_'...
GPGPU-Sim PTX: pre-decoding instructions for '_Z16intersectionPlan5Rayon6float3S0_'...
GPGPU-Sim PTX: reconvergence points for _Z16intersectionPlan5Rayon6float3S0_...
GPGPU-Sim PTX:  1 (potential) branch divergence @  PC=0x320 (_1.ptx:214) @!%p1 bra $Lt_3_2050;
GPGPU-Sim PTX:    immediate post dominator      @  PC=0x368 (_1.ptx:227) mov.f32 %f14, %f9;
GPGPU-Sim PTX:  2 (potential) branch divergence @  PC=0x330 (_1.ptx:216) bra.uni $Lt_3_1794;
GPGPU-Sim PTX:    immediate post dominator      @  PC=0x368 (_1.ptx:227) mov.f32 %f14, %f9;
GPGPU-Sim PTX: ... end of reconvergence points for _Z16intersectionPlan5Rayon6float3S0_
GPGPU-Sim PTX: ... done pre-decoding instructions for '_Z16intersectionPlan5Rayon6float3S0_'.
GPGPU-Sim PTX: instruction assembly for function '_Z10getNormale6float3S_'...   done.
GPGPU-Sim PTX: finding reconvergence points for '_Z10getNormale6float3S_'...
GPGPU-Sim PTX: Finding dominators for '_Z10getNormale6float3S_'...
GPGPU-Sim PTX: Finding immediate dominators for '_Z10getNormale6float3S_'...
GPGPU-Sim PTX: Finding postdominators for '_Z10getNormale6float3S_'...
GPGPU-Sim PTX: Finding immediate postdominators for '_Z10getNormale6float3S_'...
GPGPU-Sim PTX: pre-decoding instructions for '_Z10getNormale6float3S_'...
GPGPU-Sim PTX: reconvergence points for _Z10getNormale6float3S_...
GPGPU-Sim PTX: ... end of reconvergence points for _Z10getNormale6float3S_
GPGPU-Sim PTX: ... done pre-decoding instructions for '_Z10getNormale6float3S_'.
GPGPU-Sim PTX: instruction assembly for function '_Z11getNormaleP6float3'...   done.
GPGPU-Sim PTX: finding reconvergence points for '_Z11getNormaleP6float3'...
GPGPU-Sim PTX: Finding dominators for '_Z11getNormaleP6float3'...
GPGPU-Sim PTX: Finding immediate dominators for '_Z11getNormaleP6float3'...
GPGPU-Sim PTX: Finding postdominators for '_Z11getNormaleP6float3'...
GPGPU-Sim PTX: Finding immediate postdominators for '_Z11getNormaleP6float3'...
GPGPU-Sim PTX: pre-decoding instructions for '_Z11getNormaleP6float3'...
GPGPU-Sim PTX: reconvergence points for _Z11getNormaleP6float3...
GPGPU-Sim PTX: ... end of reconvergence points for _Z11getNormaleP6float3
GPGPU-Sim PTX: ... done pre-decoding instructions for '_Z11getNormaleP6float3'.
GPGPU-Sim PTX: instruction assembly for function '_Z14rgbaFloatToInt6float4'...   done.
GPGPU-Sim PTX: finding reconvergence points for '_Z14rgbaFloatToInt6float4'...
GPGPU-Sim PTX: Finding dominators for '_Z14rgbaFloatToInt6float4'...
GPGPU-Sim PTX: Finding immediate dominators for '_Z14rgbaFloatToInt6float4'...
GPGPU-Sim PTX: Finding postdominators for '_Z14rgbaFloatToInt6float4'...
GPGPU-Sim PTX: Finding immediate postdominators for '_Z14rgbaFloatToInt6float4'...
GPGPU-Sim PTX: pre-decoding instructions for '_Z14rgbaFloatToInt6float4'...
GPGPU-Sim PTX: reconvergence points for _Z14rgbaFloatToInt6float4...
GPGPU-Sim PTX: ... end of reconvergence points for _Z14rgbaFloatToInt6float4
GPGPU-Sim PTX: ... done pre-decoding instructions for '_Z14rgbaFloatToInt6float4'.
GPGPU-Sim PTX: allocating global region for "cnode" from 0x100 to 0x1a0 (global memory space)
GPGPU-Sim PTX: instruction assembly for function '_Z12notShadowRayP4Node6float3S1_f'...   done.
GPGPU-Sim PTX: finding reconvergence points for '_Z12notShadowRayP4Node6float3S1_f'...
GPGPU-Sim PTX: Finding dominators for '_Z12notShadowRayP4Node6float3S1_f'...
GPGPU-Sim PTX: Finding immediate dominators for '_Z12notShadowRayP4Node6float3S1_f'...
GPGPU-Sim PTX: Finding postdominators for '_Z12notShadowRayP4Node6float3S1_f'...
GPGPU-Sim PTX: Finding immediate postdominators for '_Z12notShadowRayP4Node6float3S1_f'...
GPGPU-Sim PTX: pre-decoding instructions for '_Z12notShadowRayP4Node6float3S1_f'...
GPGPU-Sim PTX: reconvergence points for _Z12notShadowRayP4Node6float3S1_f...
GPGPU-Sim PTX:  1 (potential) branch divergence @  PC=0x638 (_1.ptx:364) @%p1 bra $Lt_7_8450;
GPGPU-Sim PTX:    immediate post dominator      @  PC=0x828 (_1.ptx:441) mov.f32 %f58, 0f00000000;    // 0
GPGPU-Sim PTX:  2 (potential) branch divergence @  PC=0x658 (_1.ptx:369) @!%p2 bra $Lt_7_8962;
GPGPU-Sim PTX:    immediate post dominator      @  PC=0x6b8 (_1.ptx:385) mov.f32 %f28, %f20;
GPGPU-Sim PTX:  3 (potential) branch divergence @  PC=0x668 (_1.ptx:371) bra.uni $Lt_7_8706;
GPGPU-Sim PTX:    immediate post dominator      @  PC=0x6b8 (_1.ptx:385) mov.f32 %f28, %f20;
GPGPU-Sim PTX:  4 (potential) branch divergence @  PC=0x6c0 (_1.ptx:386) bra.uni $Lt_7_8194;
GPGPU-Sim PTX:    immediate post dominator      @  PC=0x828 (_1.ptx:441) mov.f32 %f58, 0f00000000;    // 0
GPGPU-Sim PTX:  5 (potential) branch divergence @  PC=0x7b0 (_1.ptx:418) @%p5 bra $Lt_7_9474;
GPGPU-Sim PTX:    immediate post dominator      @  PC=0x820 (_1.ptx:438) mov.f32 %f28, %f51;
GPGPU-Sim PTX:  6 (potential) branch divergence @  PC=0x7c0 (_1.ptx:420) bra.uni $Lt_7_9730;
GPGPU-Sim PTX:    immediate post dominator      @  PC=0x820 (_1.ptx:438) mov.f32 %f28, %f51;
GPGPU-Sim PTX:  7 (potential) branch divergence @  PC=0x7e0 (_1.ptx:425) @!%p6 bra $Lt_7_9986;
GPGPU-Sim PTX:    immediate post dominator      @  PC=0x820 (_1.ptx:438) mov.f32 %f28, %f51;
GPGPU-Sim PTX:  8 (potential) branch divergence @  PC=0x7f0 (_1.ptx:427) bra.uni $Lt_7_9730;
GPGPU-Sim PTX:    immediate post dominator      @  PC=0x820 (_1.ptx:438) mov.f32 %f28, %f51;
GPGPU-Sim PTX:  9 (potential) branch divergence @  PC=0x838 (_1.ptx:443) @!%p7 bra $Lt_7_10242;
GPGPU-Sim PTX:    immediate post dominator      @  PC=0x8e8 (_1.ptx:468) add.s32 %r1, %r1, 1;
GPGPU-Sim PTX: 10 (potential) branch divergence @  PC=0x8d8 (_1.ptx:463) @!%p8 bra $Lt_7_10242;
GPGPU-Sim PTX:    immediate post dominator      @  PC=0x8e8 (_1.ptx:468) add.s32 %r1, %r1, 1;
GPGPU-Sim PTX: 11 (potential) branch divergence @  PC=0x908 (_1.ptx:472) @%p9 bra $Lt_7_10754;
GPGPU-Sim PTX:    immediate post dominator      @  PC=0x960 (_1.ptx:486) selp.s32 %r10, 1, 0, %p11;
GPGPU-Sim PTX: 12 (potential) branch divergence @  PC=0x930 (_1.ptx:477) @%p10 bra $L_7_7170;
GPGPU-Sim PTX:    immediate post dominator      @  PC=0x960 (_1.ptx:486) selp.s32 %r10, 1, 0, %p11;
GPGPU-Sim PTX: 13 (potential) branch divergence @  PC=0x938 (_1.ptx:478) bra.uni $L_7_7938;
GPGPU-Sim PTX:    immediate post dominator      @  PC=0x960 (_1.ptx:486) selp.s32 %r10, 1, 0, %p11;
GPGPU-Sim PTX: ... end of reconvergence points for _Z12notShadowRayP4Node6float3S1_f
GPGPU-Sim PTX: ... done pre-decoding instructions for '_Z12notShadowRayP4Node6float3S1_f'.
GPGPU-Sim PTX: instruction assembly for function '_Z15float2int_pow20f'...   done.
GPGPU-Sim PTX: finding reconvergence points for '_Z15float2int_pow20f'...
GPGPU-Sim PTX: Finding dominators for '_Z15float2int_pow20f'...
GPGPU-Sim PTX: Finding immediate dominators for '_Z15float2int_pow20f'...
GPGPU-Sim PTX: Finding postdominators for '_Z15float2int_pow20f'...
GPGPU-Sim PTX: Finding immediate postdominators for '_Z15float2int_pow20f'...
GPGPU-Sim PTX: pre-decoding instructions for '_Z15float2int_pow20f'...
GPGPU-Sim PTX: reconvergence points for _Z15float2int_pow20f...
GPGPU-Sim PTX: ... end of reconvergence points for _Z15float2int_pow20f
GPGPU-Sim PTX: ... done pre-decoding instructions for '_Z15float2int_pow20f'.
GPGPU-Sim PTX: instruction assembly for function '_Z15float2int_pow50f'...   done.
GPGPU-Sim PTX: finding reconvergence points for '_Z15float2int_pow50f'...
GPGPU-Sim PTX: Finding dominators for '_Z15float2int_pow50f'...
GPGPU-Sim PTX: Finding immediate dominators for '_Z15float2int_pow50f'...
GPGPU-Sim PTX: Finding postdominators for '_Z15float2int_pow50f'...
GPGPU-Sim PTX: Finding immediate postdominators for '_Z15float2int_pow50f'...
GPGPU-Sim PTX: pre-decoding instructions for '_Z15float2int_pow50f'...
GPGPU-Sim PTX: reconvergence points for _Z15float2int_pow50f...
GPGPU-Sim PTX: ... end of reconvergence points for _Z15float2int_pow50f
GPGPU-Sim PTX: ... done pre-decoding instructions for '_Z15float2int_pow50f'.
GPGPU-Sim PTX: allocating constant region for "MView" from 0x200 to 0x230 (global memory space) 1
GPGPU-Sim PTX: allocating stack frame region for .local "__cuda___cuda_local_var_35463_9_non_const_pile_32240" from 0x0 to 0x50
GPGPU-Sim PTX: instruction assembly for function '_Z6renderPjP4Nodejjff'...   done.
GPGPU-Sim PTX: finding reconvergence points for '_Z6renderPjP4Nodejjff'...
GPGPU-Sim PTX: Finding dominators for '_Z6renderPjP4Nodejjff'...
GPGPU-Sim PTX: Finding immediate dominators for '_Z6renderPjP4Nodejjff'...
GPGPU-Sim PTX: Finding postdominators for '_Z6renderPjP4Nodejjff'...
GPGPU-Sim PTX: Finding immediate postdominators for '_Z6renderPjP4Nodejjff'...
GPGPU-Sim PTX: pre-decoding instructions for '_Z6renderPjP4Nodejjff'...
GPGPU-Sim PTX: reconvergence points for _Z6renderPjP4Nodejjff...
GPGPU-Sim PTX:  1 (potential) branch divergence @  PC=0xdb0 (_1.ptx:663) @%p1 bra $Lt_10_44034;
GPGPU-Sim PTX:    immediate post dominator      @  PC=0x2370 (_1.ptx:1495) exit;
GPGPU-Sim PTX:  2 (potential) branch divergence @  PC=0x1028 (_1.ptx:751) @%p2 bra $Lt_10_45570;
GPGPU-Sim PTX:    immediate post dominator      @  PC=0x11b8 (_1.ptx:815) mov.f32 %f108, 0f00000000;   // 0
GPGPU-Sim PTX:  3 (potential) branch divergence @  PC=0x1048 (_1.ptx:756) @!%p3 bra $Lt_10_46082;
GPGPU-Sim PTX:    immediate post dominator      @  PC=0x1090 (_1.ptx:769) mov.f32 %f87, %f82;
GPGPU-Sim PTX:  4 (potential) branch divergence @  PC=0x1058 (_1.ptx:758) bra.uni $Lt_10_45826;
GPGPU-Sim PTX:    immediate post dominator      @  PC=0x1090 (_1.ptx:769) mov.f32 %f87, %f82;
GPGPU-Sim PTX:  5 (potential) branch divergence @  PC=0x1098 (_1.ptx:770) bra.uni $Lt_10_45314;
GPGPU-Sim PTX:    immediate post dominator      @  PC=0x11b8 (_1.ptx:815) mov.f32 %f108, 0f00000000;   // 0
GPGPU-Sim PTX:  6 (potential) branch divergence @  PC=0x1140 (_1.ptx:793) @%p6 bra $Lt_10_46594;
GPGPU-Sim PTX:    immediate post dominator      @  PC=0x11b0 (_1.ptx:813) mov.f32 %f87, %f101;
GPGPU-Sim PTX:  7 (potential) branch divergence @  PC=0x1150 (_1.ptx:795) bra.uni $Lt_10_46850;
GPGPU-Sim PTX:    immediate post dominator      @  PC=0x11b0 (_1.ptx:813) mov.f32 %f87, %f101;
GPGPU-Sim PTX:  8 (potential) branch divergence @  PC=0x1170 (_1.ptx:800) @!%p7 bra $Lt_10_47106;
GPGPU-Sim PTX:    immediate post dominator      @  PC=0x11b0 (_1.ptx:813) mov.f32 %f87, %f101;
GPGPU-Sim PTX:  9 (potential) branch divergence @  PC=0x1180 (_1.ptx:802) bra.uni $Lt_10_46850;
GPGPU-Sim PTX:    immediate post dominator      @  PC=0x11b0 (_1.ptx:813) mov.f32 %f87, %f101;
GPGPU-Sim PTX: 10 (potential) branch divergence @  PC=0x11f8 (_1.ptx:823) @%p8 bra $Lt_10_47362;
GPGPU-Sim PTX:    immediate post dominator      @  PC=0x1210 (_1.ptx:829) add.s32 %r25, %r25, 1;
GPGPU-Sim PTX: 11 (potential) branch divergence @  PC=0x1230 (_1.ptx:833) @%p9 bra $Lt_10_45058;
GPGPU-Sim PTX:    immediate post dominator      @  PC=0x1238 (_1.ptx:834) mov.f32 %f109, 0f00000000;   // 0
GPGPU-Sim PTX: 12 (potential) branch divergence @  PC=0x1280 (_1.ptx:843) @%p10 bra $Lt_10_48130;
GPGPU-Sim PTX:    immediate post dominator      @  PC=0x2140 (_1.ptx:1416) add.s32 %r23, %r23, 1;
GPGPU-Sim PTX: 13 (potential) branch divergence @  PC=0x1330 (_1.ptx:868) @%p11 bra $Lt_10_48898;
GPGPU-Sim PTX:    immediate post dominator      @  PC=0x13b8 (_1.ptx:888) sub.f32 %f136, %f21, %f119;
GPGPU-Sim PTX: 14 (potential) branch divergence @  PC=0x1350 (_1.ptx:873) bra.uni $Lt_10_48642;
GPGPU-Sim PTX:    immediate post dominator      @  PC=0x13b8 (_1.ptx:888) sub.f32 %f136, %f21, %f119;
GPGPU-Sim PTX: 15 (potential) branch divergence @  PC=0x1430 (_1.ptx:903) @!%p12 bra $Lt_10_49410;
GPGPU-Sim PTX:    immediate post dominator      @  PC=0x1470 (_1.ptx:915) mov.f32 %f153, 0f3d4ccccd;   // 0.05
GPGPU-Sim PTX: 16 (potential) branch divergence @  PC=0x1450 (_1.ptx:908) bra.uni $Lt_10_49154;
GPGPU-Sim PTX:    immediate post dominator      @  PC=0x1470 (_1.ptx:915) mov.f32 %f153, 0f3d4ccccd;   // 0.05
GPGPU-Sim PTX: 17 (potential) branch divergence @  PC=0x1578 (_1.ptx:949) @!%p13 bra $Lt_10_58114;
GPGPU-Sim PTX:    immediate post dominator      @  PC=0x2080 (_1.ptx:1388) add.f32 %f399, %f126, %f126;
GPGPU-Sim PTX: 18 (potential) branch divergence @  PC=0x15c0 (_1.ptx:961) @%p14 bra $Lt_10_49922;
GPGPU-Sim PTX:    immediate post dominator      @  PC=0x17b0 (_1.ptx:1039) mov.f32 %f221, 0f00000000;   // 0
GPGPU-Sim PTX: 19 (potential) branch divergence @  PC=0x15e0 (_1.ptx:966) @!%p15 bra $Lt_10_50434;
GPGPU-Sim PTX:    immediate post dominator      @  PC=0x1638 (_1.ptx:982) mov.f32 %f190, %f183;
GPGPU-Sim PTX: 20 (potential) branch divergence @  PC=0x15f0 (_1.ptx:968) bra.uni $Lt_10_50178;
GPGPU-Sim PTX:    immediate post dominator      @  PC=0x1638 (_1.ptx:982) mov.f32 %f190, %f183;
GPGPU-Sim PTX: 21 (potential) branch divergence @  PC=0x1640 (_1.ptx:983) bra.uni $Lt_10_49666;
GPGPU-Sim PTX:    immediate post dominator      @  PC=0x17b0 (_1.ptx:1039) mov.f32 %f221, 0f00000000;   // 0
GPGPU-Sim PTX: 22 (potential) branch divergence @  PC=0x1738 (_1.ptx:1016) @%p18 bra $Lt_10_50946;
GPGPU-Sim PTX:    immediate post dominator      @  PC=0x17a8 (_1.ptx:1036) mov.f32 %f190, %f214;
GPGPU-Sim PTX: 23 (potential) branch divergence @  PC=0x1748 (_1.ptx:1018) bra.uni $Lt_10_51202;
GPGPU-Sim PTX:    immediate post dominator      @  PC=0x17a8 (_1.ptx:1036) mov.f32 %f190, %f214;
GPGPU-Sim PTX: 24 (potential) branch divergence @  PC=0x1768 (_1.ptx:1023) @!%p19 bra $Lt_10_51458;
GPGPU-Sim PTX:    immediate post dominator      @  PC=0x17a8 (_1.ptx:1036) mov.f32 %f190, %f214;
GPGPU-Sim PTX: 25 (potential) branch divergence @  PC=0x1778 (_1.ptx:1025) bra.uni $Lt_10_51202;
GPGPU-Sim PTX:    immediate post dominator      @  PC=0x17a8 (_1.ptx:1036) mov.f32 %f190, %f214;
GPGPU-Sim PTX: 26 (potential) branch divergence @  PC=0x17c0 (_1.ptx:1041) @!%p20 bra $Lt_10_58370;
GPGPU-Sim PTX:    immediate post dominator      @  PC=0x1828 (_1.ptx:1057) add.s32 %r50, %r50, 1;
GPGPU-Sim PTX: 27 (potential) branch divergence @  PC=0x1818 (_1.ptx:1052) @!%p21 bra $Lt_10_58370;
GPGPU-Sim PTX:    immediate post dominator      @  PC=0x1828 (_1.ptx:1057) add.s32 %r50, %r50, 1;
GPGPU-Sim PTX: 28 (potential) branch divergence @  PC=0x1848 (_1.ptx:1061) @%p22 bra $Lt_10_58882;
GPGPU-Sim PTX:    immediate post dominator      @  PC=0x1880 (_1.ptx:1071) @!%p23 bra $Lt_10_58114;
GPGPU-Sim PTX: 29 (potential) branch divergence @  PC=0x1860 (_1.ptx:1064) @%p23 bra $L_10_42498;
GPGPU-Sim PTX:    immediate post dominator      @  PC=0x1880 (_1.ptx:1071) @!%p23 bra $Lt_10_58114;
GPGPU-Sim PTX: 30 (potential) branch divergence @  PC=0x1868 (_1.ptx:1065) bra.uni $L_10_43266;
GPGPU-Sim PTX:    immediate post dominator      @  PC=0x1880 (_1.ptx:1071) @!%p23 bra $Lt_10_58114;
GPGPU-Sim PTX: 31 (potential) branch divergence @  PC=0x1880 (_1.ptx:1071) @!%p23 bra $Lt_10_58114;
GPGPU-Sim PTX:    immediate post dominator      @  PC=0x2080 (_1.ptx:1388) add.f32 %f399, %f126, %f126;
GPGPU-Sim PTX: 32 (potential) branch divergence @  PC=0x19c8 (_1.ptx:1115) @!%p24 bra $Lt_10_51714;
GPGPU-Sim PTX:    immediate post dominator      @  PC=0x2040 (_1.ptx:1375) mov.f32 %f394, 0f3f4ccccd;   // 0.8
GPGPU-Sim PTX: 33 (potential) branch divergence @  PC=0x19d8 (_1.ptx:1118) bra.uni $LDWendi___isnanf_192_1;
GPGPU-Sim PTX:    immediate post dominator      @  PC=0x2040 (_1.ptx:1375) mov.f32 %f394, 0f3f4ccccd;   // 0.8
GPGPU-Sim PTX: 34 (potential) branch divergence @  PC=0x19f8 (_1.ptx:1124) @!%p25 bra $Lt_10_7682;
GPGPU-Sim PTX:    immediate post dominator      @  PC=0x2040 (_1.ptx:1375) mov.f32 %f394, 0f3f4ccccd;   // 0.8
GPGPU-Sim PTX: 35 (potential) branch divergence @  PC=0x1a00 (_1.ptx:1125) bra.uni $Lt_10_7938;
GPGPU-Sim PTX:    immediate post dominator      @  PC=0x1a20 (_1.ptx:1133) mov.f32 %f272, 0f7f800000;   // ((1.0F)/(0.0F))
GPGPU-Sim PTX: 36 (potential) branch divergence @  PC=0x1a18 (_1.ptx:1130) bra.uni $LDWendi___isnanf_192_1;
GPGPU-Sim PTX:    immediate post dominator      @  PC=0x2040 (_1.ptx:1375) mov.f32 %f394, 0f3f4ccccd;   // 0.8
GPGPU-Sim PTX: 37 (potential) branch divergence @  PC=0x1a30 (_1.ptx:1135) @!%p26 bra $Lt_10_52226;
GPGPU-Sim PTX:    immediate post dominator      @  PC=0x2040 (_1.ptx:1375) mov.f32 %f394, 0f3f4ccccd;   // 0.8
GPGPU-Sim PTX: 38 (potential) branch divergence @  PC=0x1a40 (_1.ptx:1138) bra.uni $LDWendi___isnanf_192_1;
GPGPU-Sim PTX:    immediate post dominator      @  PC=0x2040 (_1.ptx:1375) mov.f32 %f394, 0f3f4ccccd;   // 0.8
GPGPU-Sim PTX: 39 (potential) branch divergence @  PC=0x1a58 (_1.ptx:1142) @!%p27 bra $Lt_10_52738;
GPGPU-Sim PTX:    immediate post dominator      @  PC=0x2040 (_1.ptx:1375) mov.f32 %f394, 0f3f4ccccd;   // 0.8
GPGPU-Sim PTX: 40 (potential) branch divergence @  PC=0x1ab8 (_1.ptx:1155) bra.uni $LDWendi___isnanf_192_1;
GPGPU-Sim PTX:    immediate post dominator      @  PC=0x2040 (_1.ptx:1375) mov.f32 %f394, 0f3f4ccccd;   // 0.8
GPGPU-Sim PTX: 41 (potential) branch divergence @  PC=0x1ad0 (_1.ptx:1159) @!%p29 bra $Lt_10_53250;
GPGPU-Sim PTX:    immediate post dominator      @  PC=0x2040 (_1.ptx:1375) mov.f32 %f394, 0f3f4ccccd;   // 0.8
GPGPU-Sim PTX: 42 (potential) branch divergence @  PC=0x1b20 (_1.ptx:1170) @!%p30 bra $Lt_10_53762;
GPGPU-Sim PTX:    immediate post dominator      @  PC=0x1b40 (_1.ptx:1177) mov.f32 %f268, %f284;
GPGPU-Sim PTX: 43 (potential) branch divergence @  PC=0x1b48 (_1.ptx:1178) bra.uni $LDWendi___isnanf_192_1;
GPGPU-Sim PTX:    immediate post dominator      @  PC=0x2040 (_1.ptx:1375) mov.f32 %f394, 0f3f4ccccd;   // 0.8
GPGPU-Sim PTX: 44 (potential) branch divergence @  PC=0x1b60 (_1.ptx:1183) @!%p31 bra $Lt_10_59394;
GPGPU-Sim PTX:    immediate post dominator      @  PC=0x2040 (_1.ptx:1375) mov.f32 %f394, 0f3f4ccccd;   // 0.8
GPGPU-Sim PTX: 45 (potential) branch divergence @  PC=0x1b88 (_1.ptx:1188) @!%p32 bra $Lt_10_59394;
GPGPU-Sim PTX:    immediate post dominator      @  PC=0x2040 (_1.ptx:1375) mov.f32 %f394, 0f3f4ccccd;   // 0.8
GPGPU-Sim PTX: 46 (potential) branch divergence @  PC=0x1ba0 (_1.ptx:1192) bra.uni $LDWendi___isnanf_192_1;
GPGPU-Sim PTX:    immediate post dominator      @  PC=0x2040 (_1.ptx:1375) mov.f32 %f394, 0f3f4ccccd;   // 0.8
GPGPU-Sim PTX: 47 (potential) branch divergence @  PC=0x1bd8 (_1.ptx:1202) @%p33 bra $Lt_10_54530;
GPGPU-Sim PTX:    immediate post dominator      @  PC=0x1c20 (_1.ptx:1216) sub.s32 %r64, %r64, 127;
GPGPU-Sim PTX: 48 (potential) branch divergence @  PC=0x1c10 (_1.ptx:1211) bra.uni $Lt_10_54274;
GPGPU-Sim PTX:    immediate post dominator      @  PC=0x1c20 (_1.ptx:1216) sub.s32 %r64, %r64, 127;
GPGPU-Sim PTX: 49 (potential) branch divergence @  PC=0x1c58 (_1.ptx:1224) @!%p34 bra $Lt_10_54786;
GPGPU-Sim PTX:    immediate post dominator      @  PC=0x1c78 (_1.ptx:1232) mov.f32 %f302, 0fbf800000;   // -1
GPGPU-Sim PTX: 50 (potential) branch divergence @  PC=0x1eb0 (_1.ptx:1312) @%p35 bra $Lt_10_55298;
GPGPU-Sim PTX:    immediate post dominator      @  PC=0x1ed8 (_1.ptx:1321) mov.f32 %f367, %f365;
GPGPU-Sim PTX: 51 (potential) branch divergence @  PC=0x1f98 (_1.ptx:1346) @!%p38 bra $Lt_10_55810;
GPGPU-Sim PTX:    immediate post dominator      @  PC=0x1fa8 (_1.ptx:1351) mov.f32 %f284, %f386;
GPGPU-Sim PTX: 52 (potential) branch divergence @  PC=0x2018 (_1.ptx:1365) @%p39 bra $Lt_10_56322;
GPGPU-Sim PTX:    immediate post dominator      @  PC=0x2038 (_1.ptx:1372) mov.f32 %f268, %f284;
GPGPU-Sim PTX: 53 (potential) branch divergence @  PC=0x2158 (_1.ptx:1419) @%p40 bra $L_10_42242;
GPGPU-Sim PTX:    immediate post dominator      @  PC=0x2170 (_1.ptx:1424) sub.s32 %r86, %r24, 1;
GPGPU-Sim PTX: 54 (potential) branch divergence @  PC=0x2168 (_1.ptx:1421) @%p41 bra $L_10_41474;
GPGPU-Sim PTX:    immediate post dominator      @  PC=0x2170 (_1.ptx:1424) sub.s32 %r86, %r24, 1;
GPGPU-Sim PTX: 55 (potential) branch divergence @  PC=0x2190 (_1.ptx:1428) @%p42 bra $Lt_10_56834;
GPGPU-Sim PTX:    immediate post dominator      @  PC=0x2288 (_1.ptx:1464) ld.global.u32 %r92, [%rd4+0];
GPGPU-Sim PTX: 56 (potential) branch divergence @  PC=0x2280 (_1.ptx:1461) @%p43 bra $Lt_10_57346;
GPGPU-Sim PTX:    immediate post dominator      @  PC=0x2288 (_1.ptx:1464) ld.global.u32 %r92, [%rd4+0];
GPGPU-Sim PTX: ... end of reconvergence points for _Z6renderPjP4Nodejjff
GPGPU-Sim PTX: ... done pre-decoding instructions for '_Z6renderPjP4Nodejjff'.
GPGPU-Sim PTX: instruction assembly for function '_ZN4dim3C1Ejjj'...   done.
GPGPU-Sim PTX: finding reconvergence points for '_ZN4dim3C1Ejjj'...
GPGPU-Sim PTX: Finding dominators for '_ZN4dim3C1Ejjj'...
GPGPU-Sim PTX: Finding immediate dominators for '_ZN4dim3C1Ejjj'...
GPGPU-Sim PTX: Finding postdominators for '_ZN4dim3C1Ejjj'...
GPGPU-Sim PTX: Finding immediate postdominators for '_ZN4dim3C1Ejjj'...
GPGPU-Sim PTX: pre-decoding instructions for '_ZN4dim3C1Ejjj'...
GPGPU-Sim PTX: reconvergence points for _ZN4dim3C1Ejjj...
GPGPU-Sim PTX: ... end of reconvergence points for _ZN4dim3C1Ejjj
GPGPU-Sim PTX: ... done pre-decoding instructions for '_ZN4dim3C1Ejjj'.
GPGPU-Sim PTX: finished parsing EMBEDDED .ptx file _1.ptx
Adding _cuobjdump_1.ptx with cubin handle 1
GPGPU-Sim PTX: extracting embedded .ptx to temporary file "_ptx_uxEBQD"
Running: cat _ptx_uxEBQD | sed 's/.version 1.5/.version 1.4/' | sed 's/, texmode_independent//' | sed 's/\(\.extern \.const\[1\] .b8 \w\+\)\[\]/\1\[1\]/' | sed 's/const\[.\]/const\[0\]/g' > _ptx2_6tl18m
GPGPU-Sim PTX: generating ptxinfo using "$CUDA_INSTALL_PATH/bin/ptxas --gpu-name=sm_20 -v _ptx2_6tl18m --output-file  /dev/null 2> _ptx_uxEBQDinfo"
GPGPU-Sim PTX: Kernel '_Z6renderPjP4Nodejjff' : regs=45, lmem=4, smem=0, cmem=180
GPGPU-Sim PTX: removing ptxinfo using "rm -f _ptx_uxEBQD _ptx2_6tl18m _ptx_uxEBQDinfo"
GPGPU-Sim PTX: loading globals with explicit initializers... 
GPGPU-Sim PTX: finished loading globals (0 bytes total).
GPGPU-Sim PTX: loading constants with explicit initializers...  done.
GPGPU-Sim PTX: __cudaRegisterVar: hostVar = 0x62fda0; deviceAddress = MView; deviceName = MView
GPGPU-Sim PTX: __cudaRegisterVar: Registering const memory space of 48 bytes
GPGPU-Sim PTX registering constant MView (48 bytes) to name mapping
GPGPU-Sim PTX: __cudaRegisterVar: hostVar = 0x62fde0; deviceAddress = cnode; deviceName = cnode
GPGPU-Sim PTX: __cudaRegisterVar: Registering const memory space of 160 bytes
GPGPU-Sim PTX registering constant cnode (160 bytes) to name mapping
GPGPU-Sim PTX: cudaMemcpyToSymbol: symbol = 0x62fde0
GPGPU-Sim PTX: starting gpgpu_ptx_sim_memcpy_symbol with hostVar 0x0x62fde0
GPGPU-Sim PTX: gpgpu_ptx_sim_memcpy_symbol: Found PTX symbol w/ hostVar=0x62fde0
GPGPU-Sim PTX: gpgpu_ptx_sim_memcpy_symbol: copying const memory 160 bytes  to  symbol cnode+0 @0x100 ...
GPGPU-Sim PTX: cudaMemcpyToSymbol: symbol = 0x62fda0
GPGPU-Sim PTX: starting gpgpu_ptx_sim_memcpy_symbol with hostVar 0x0x62fda0
GPGPU-Sim PTX: gpgpu_ptx_sim_memcpy_symbol: Found PTX symbol w/ hostVar=0x62fda0
GPGPU-Sim PTX: gpgpu_ptx_sim_memcpy_symbol: copying const memory 48 bytes  to  symbol MView+0 @0x200 ...

GPGPU-Sim PTX: cudaLaunch for 0x0x40ce13 (mode=performance simulation) on stream 0
GPGPU-Sim PTX: pushing kernel '_Z6renderPjP4Nodejjff' to stream 0, gridDim= (16,32,1) blockDim = (16,8,1) 
kernel '_Z6renderPjP4Nodejjff' transfer to GPU hardware scheduler
GPGPU-Sim uArch: Shader 1 bind to kernel 1 '_Z6renderPjP4Nodejjff'
GPGPU-Sim uArch: CTA/core = 5, limited by: regs
GPGPU-Sim uArch: core:  1, cta: 0 initialized @(1,0)
GPGPU-Sim uArch: Shader 2 bind to kernel 1 '_Z6renderPjP4Nodejjff'
GPGPU-Sim uArch: core:  2, cta: 0 initialized @(1,0)
GPGPU-Sim uArch: Shader 3 bind to kernel 1 '_Z6renderPjP4Nodejjff'
GPGPU-Sim uArch: core:  3, cta: 0 initialized @(1,0)
GPGPU-Sim uArch: Shader 4 bind to kernel 1 '_Z6renderPjP4Nodejjff'
GPGPU-Sim uArch: core:  4, cta: 0 initialized @(1,0)
GPGPU-Sim uArch: Shader 5 bind to kernel 1 '_Z6renderPjP4Nodejjff'
GPGPU-Sim uArch: core:  5, cta: 0 initialized @(1,0)
GPGPU-Sim uArch: Shader 6 bind to kernel 1 '_Z6renderPjP4Nodejjff'
GPGPU-Sim uArch: core:  6, cta: 0 initialized @(1,0)
GPGPU-Sim uArch: Shader 7 bind to kernel 1 '_Z6renderPjP4Nodejjff'
GPGPU-Sim uArch: core:  7, cta: 0 initialized @(1,0)
GPGPU-Sim uArch: Shader 8 bind to kernel 1 '_Z6renderPjP4Nodejjff'
GPGPU-Sim uArch: core:  8, cta: 0 initialized @(1,0)
GPGPU-Sim uArch: Shader 9 bind to kernel 1 '_Z6renderPjP4Nodejjff'
GPGPU-Sim uArch: core:  9, cta: 0 initialized @(1,0)
GPGPU-Sim uArch: Shader 10 bind to kernel 1 '_Z6renderPjP4Nodejjff'
GPGPU-Sim uArch: core: 10, cta: 0 initialized @(1,0)
GPGPU-Sim uArch: Shader 11 bind to kernel 1 '_Z6renderPjP4Nodejjff'
GPGPU-Sim uArch: core: 11, cta: 0 initialized @(1,0)
GPGPU-Sim uArch: Shader 12 bind to kernel 1 '_Z6renderPjP4Nodejjff'
GPGPU-Sim uArch: core: 12, cta: 0 initialized @(1,0)
GPGPU-Sim uArch: Shader 13 bind to kernel 1 '_Z6renderPjP4Nodejjff'
GPGPU-Sim uArch: core: 13, cta: 0 initialized @(1,0)
GPGPU-Sim uArch: Shader 14 bind to kernel 1 '_Z6renderPjP4Nodejjff'
GPGPU-Sim uArch: core: 14, cta: 0 initialized @(1,0)
GPGPU-Sim uArch: Shader 0 bind to kernel 1 '_Z6renderPjP4Nodejjff'
GPGPU-Sim uArch: core:  0, cta: 0 initialized @(1,0)
GPGPU-Sim uArch: core:  1, cta: 1 initialized @(2,0)
GPGPU-Sim uArch: core:  2, cta: 1 initialized @(2,0)
GPGPU-Sim uArch: core:  3, cta: 1 initialized @(2,0)
GPGPU-Sim uArch: core:  4, cta: 1 initialized @(2,0)
GPGPU-Sim uArch: core:  5, cta: 1 initialized @(2,0)
GPGPU-Sim uArch: core:  6, cta: 1 initialized @(2,0)
GPGPU-Sim uArch: core:  7, cta: 1 initialized @(2,0)
GPGPU-Sim uArch: core:  8, cta: 1 initialized @(2,0)
GPGPU-Sim uArch: core:  9, cta: 1 initialized @(2,0)
GPGPU-Sim uArch: core: 10, cta: 1 initialized @(2,0)
GPGPU-Sim uArch: core: 11, cta: 1 initialized @(2,0)
GPGPU-Sim uArch: core: 12, cta: 1 initialized @(2,0)
GPGPU-Sim uArch: core: 13, cta: 1 initialized @(2,0)
GPGPU-Sim uArch: core: 14, cta: 1 initialized @(2,0)
GPGPU-Sim uArch: core:  0, cta: 1 initialized @(2,0)
GPGPU-Sim uArch: core:  1, cta: 2 initialized @(3,0)
GPGPU-Sim uArch: core:  2, cta: 2 initialized @(3,0)
GPGPU-Sim uArch: core:  3, cta: 2 initialized @(3,0)
GPGPU-Sim uArch: core:  4, cta: 2 initialized @(3,0)
GPGPU-Sim uArch: core:  5, cta: 2 initialized @(3,0)
GPGPU-Sim uArch: core:  6, cta: 2 initialized @(3,0)
GPGPU-Sim uArch: core:  7, cta: 2 initialized @(3,0)
GPGPU-Sim uArch: core:  8, cta: 2 initialized @(3,0)
GPGPU-Sim uArch: core:  9, cta: 2 initialized @(3,0)
GPGPU-Sim uArch: core: 10, cta: 2 initialized @(3,0)
GPGPU-Sim uArch: core: 11, cta: 2 initialized @(3,0)
GPGPU-Sim uArch: core: 12, cta: 2 initialized @(3,0)
GPGPU-Sim uArch: core: 13, cta: 2 initialized @(3,0)
GPGPU-Sim uArch: core: 14, cta: 2 initialized @(3,0)
GPGPU-Sim uArch: core:  0, cta: 2 initialized @(3,0)
GPGPU-Sim uArch: core:  1, cta: 3 initialized @(4,0)
GPGPU-Sim uArch: core:  2, cta: 3 initialized @(4,0)
GPGPU-Sim uArch: core:  3, cta: 3 initialized @(4,0)
GPGPU-Sim uArch: core:  4, cta: 3 initialized @(4,0)
GPGPU-Sim uArch: core:  5, cta: 3 initialized @(4,0)
GPGPU-Sim uArch: core:  6, cta: 3 initialized @(4,0)
GPGPU-Sim uArch: core:  7, cta: 3 initialized @(4,0)
GPGPU-Sim uArch: core:  8, cta: 3 initialized @(4,0)
GPGPU-Sim uArch: core:  9, cta: 3 initialized @(4,0)
GPGPU-Sim uArch: core: 10, cta: 3 initialized @(4,0)
GPGPU-Sim uArch: core: 11, cta: 3 initialized @(4,0)
GPGPU-Sim uArch: core: 12, cta: 3 initialized @(4,0)
GPGPU-Sim uArch: core: 13, cta: 3 initialized @(4,0)
GPGPU-Sim uArch: core: 14, cta: 3 initialized @(4,0)
GPGPU-Sim uArch: core:  0, cta: 3 initialized @(4,0)
GPGPU-Sim uArch: core:  1, cta: 4 initialized @(5,0)
GPGPU-Sim uArch: core:  2, cta: 4 initialized @(5,0)
GPGPU-Sim uArch: core:  3, cta: 4 initialized @(5,0)
GPGPU-Sim uArch: core:  4, cta: 4 initialized @(5,0)
GPGPU-Sim uArch: core:  5, cta: 4 initialized @(5,0)
GPGPU-Sim uArch: core:  6, cta: 4 initialized @(5,0)
GPGPU-Sim uArch: core:  7, cta: 4 initialized @(5,0)
GPGPU-Sim uArch: core:  8, cta: 4 initialized @(5,0)
GPGPU-Sim uArch: core:  9, cta: 4 initialized @(5,0)
GPGPU-Sim uArch: core: 10, cta: 4 initialized @(5,0)
GPGPU-Sim uArch: core: 11, cta: 4 initialized @(5,0)
GPGPU-Sim uArch: core: 12, cta: 4 initialized @(5,0)
GPGPU-Sim uArch: core: 13, cta: 4 initialized @(5,0)
GPGPU-Sim uArch: core: 14, cta: 4 initialized @(5,0)
GPGPU-Sim uArch: core:  0, cta: 4 initialized @(5,0)
GPGPU-Sim uArch: cycles simulated: 500  inst.: 35872 (ipc=71.7) sim_rate=17936 (inst/sec) elapsed = 0:0:00:02 / Wed Mar  2 01:13:08 2016
GPGPU-Sim uArch: cycles simulated: 1000  inst.: 55232 (ipc=55.2) sim_rate=18410 (inst/sec) elapsed = 0:0:00:03 / Wed Mar  2 01:13:09 2016
GPGPU-Sim PTX: 100000 instructions simulated : ctaid=(5,1,0) tid=(15,1,0)
GPGPU-Sim uArch: cycles simulated: 4000  inst.: 113600 (ipc=28.4) sim_rate=28400 (inst/sec) elapsed = 0:0:00:04 / Wed Mar  2 01:13:10 2016
GPGPU-Sim PTX: 200000 instructions simulated : ctaid=(12,0,0) tid=(15,5,0)
GPGPU-Sim uArch: cycles simulated: 7000  inst.: 234528 (ipc=33.5) sim_rate=46905 (inst/sec) elapsed = 0:0:00:05 / Wed Mar  2 01:13:11 2016
GPGPU-Sim PTX: 300000 instructions simulated : ctaid=(12,0,0) tid=(15,1,0)
GPGPU-Sim PTX: 400000 instructions simulated : ctaid=(2,1,0) tid=(15,1,0)
GPGPU-Sim uArch: cycles simulated: 9500  inst.: 424704 (ipc=44.7) sim_rate=70784 (inst/sec) elapsed = 0:0:00:06 / Wed Mar  2 01:13:12 2016
GPGPU-Sim PTX: 500000 instructions simulated : ctaid=(12,1,0) tid=(15,5,0)
GPGPU-Sim PTX: 600000 instructions simulated : ctaid=(7,0,0) tid=(15,7,0)
GPGPU-Sim uArch: cycles simulated: 11500  inst.: 655200 (ipc=57.0) sim_rate=93600 (inst/sec) elapsed = 0:0:00:07 / Wed Mar  2 01:13:13 2016
GPGPU-Sim PTX: 700000 instructions simulated : ctaid=(10,0,0) tid=(15,3,0)
GPGPU-Sim PTX: 800000 instructions simulated : ctaid=(6,4,0) tid=(15,1,0)
GPGPU-Sim PTX: 900000 instructions simulated : ctaid=(10,1,0) tid=(15,7,0)
GPGPU-Sim uArch: cycles simulated: 13500  inst.: 934432 (ipc=69.2) sim_rate=116804 (inst/sec) elapsed = 0:0:00:08 / Wed Mar  2 01:13:14 2016
GPGPU-Sim PTX: 1000000 instructions simulated : ctaid=(0,2,0) tid=(15,3,0)
GPGPU-Sim PTX: 1100000 instructions simulated : ctaid=(6,2,0) tid=(15,7,0)
GPGPU-Sim PTX: 1200000 instructions simulated : ctaid=(1,1,0) tid=(15,1,0)
GPGPU-Sim PTX: 1300000 instructions simulated : ctaid=(2,2,0) tid=(15,7,0)
GPGPU-Sim uArch: cycles simulated: 15500  inst.: 1373696 (ipc=88.6) sim_rate=152632 (inst/sec) elapsed = 0:0:00:09 / Wed Mar  2 01:13:15 2016
GPGPU-Sim PTX: 1400000 instructions simulated : ctaid=(0,3,0) tid=(15,3,0)
GPGPU-Sim PTX: 1500000 instructions simulated : ctaid=(10,0,0) tid=(15,5,0)
GPGPU-Sim PTX: 1600000 instructions simulated : ctaid=(14,3,0) tid=(15,3,0)
GPGPU-Sim PTX: 1700000 instructions simulated : ctaid=(12,1,0) tid=(15,3,0)
GPGPU-Sim PTX: 1800000 instructions simulated : ctaid=(5,0,0) tid=(15,1,0)
GPGPU-Sim PTX: 1900000 instructions simulated : ctaid=(8,2,0) tid=(15,5,0)
GPGPU-Sim uArch: cycles simulated: 16500  inst.: 1929440 (ipc=116.9) sim_rate=192944 (inst/sec) elapsed = 0:0:00:10 / Wed Mar  2 01:13:16 2016
GPGPU-Sim PTX: 2000000 instructions simulated : ctaid=(8,2,0) tid=(15,1,0)
GPGPU-Sim PTX: 2100000 instructions simulated : ctaid=(1,0,0) tid=(15,7,0)
GPGPU-Sim PTX: 2200000 instructions simulated : ctaid=(4,2,0) tid=(15,5,0)
GPGPU-Sim PTX: 2300000 instructions simulated : ctaid=(12,2,0) tid=(15,1,0)
GPGPU-Sim PTX: 2400000 instructions simulated : ctaid=(6,1,0) tid=(15,7,0)
GPGPU-Sim PTX: 2500000 instructions simulated : ctaid=(9,3,0) tid=(15,7,0)
GPGPU-Sim PTX: 2600000 instructions simulated : ctaid=(0,3,0) tid=(15,5,0)
GPGPU-Sim uArch: cycles simulated: 17500  inst.: 2562112 (ipc=146.4) sim_rate=232919 (inst/sec) elapsed = 0:0:00:11 / Wed Mar  2 01:13:17 2016
GPGPU-Sim PTX: 2700000 instructions simulated : ctaid=(12,1,0) tid=(15,7,0)
GPGPU-Sim PTX: 2800000 instructions simulated : ctaid=(1,1,0) tid=(15,5,0)
GPGPU-Sim PTX: 2900000 instructions simulated : ctaid=(7,3,0) tid=(15,5,0)
GPGPU-Sim PTX: 3000000 instructions simulated : ctaid=(8,4,0) tid=(15,7,0)
GPGPU-Sim PTX: 3100000 instructions simulated : ctaid=(9,4,0) tid=(15,3,0)
GPGPU-Sim PTX: 3200000 instructions simulated : ctaid=(13,1,0) tid=(15,5,0)
GPGPU-Sim uArch: cycles simulated: 18500  inst.: 3187712 (ipc=172.3) sim_rate=265642 (inst/sec) elapsed = 0:0:00:12 / Wed Mar  2 01:13:18 2016
GPGPU-Sim PTX: 3300000 instructions simulated : ctaid=(3,3,0) tid=(15,5,0)
GPGPU-Sim PTX: 3400000 instructions simulated : ctaid=(11,0,0) tid=(15,1,0)
GPGPU-Sim PTX: 3500000 instructions simulated : ctaid=(7,4,0) tid=(15,1,0)
GPGPU-Sim PTX: 3600000 instructions simulated : ctaid=(8,2,0) tid=(15,5,0)
GPGPU-Sim uArch: cycles simulated: 19500  inst.: 3559840 (ipc=182.6) sim_rate=273833 (inst/sec) elapsed = 0:0:00:13 / Wed Mar  2 01:13:19 2016
GPGPU-Sim PTX: 3700000 instructions simulated : ctaid=(7,0,0) tid=(15,5,0)
GPGPU-Sim PTX: 3800000 instructions simulated : ctaid=(15,0,0) tid=(15,7,0)
GPGPU-Sim PTX: 3900000 instructions simulated : ctaid=(12,0,0) tid=(15,1,0)
GPGPU-Sim PTX: 4000000 instructions simulated : ctaid=(1,3,0) tid=(15,3,0)
GPGPU-Sim PTX: 4100000 instructions simulated : ctaid=(1,0,0) tid=(15,7,0)
GPGPU-Sim uArch: cycles simulated: 21000  inst.: 4041536 (ipc=192.5) sim_rate=288681 (inst/sec) elapsed = 0:0:00:14 / Wed Mar  2 01:13:20 2016
GPGPU-Sim PTX: 4200000 instructions simulated : ctaid=(12,1,0) tid=(15,1,0)
GPGPU-Sim PTX: 4300000 instructions simulated : ctaid=(6,4,0) tid=(15,1,0)
GPGPU-Sim PTX: 4400000 instructions simulated : ctaid=(2,0,0) tid=(15,5,0)
GPGPU-Sim PTX: 4500000 instructions simulated : ctaid=(0,4,0) tid=(15,3,0)
GPGPU-Sim PTX: 4600000 instructions simulated : ctaid=(8,1,0) tid=(5,1,0)
GPGPU-Sim PTX: 4700000 instructions simulated : ctaid=(8,0,0) tid=(11,6,0)
GPGPU-Sim PTX: 4800000 instructions simulated : ctaid=(9,1,0) tid=(15,6,0)
GPGPU-Sim uArch: cycles simulated: 22500  inst.: 4704528 (ipc=209.1) sim_rate=313635 (inst/sec) elapsed = 0:0:00:15 / Wed Mar  2 01:13:21 2016
GPGPU-Sim PTX: 4900000 instructions simulated : ctaid=(7,3,0) tid=(15,0,0)
GPGPU-Sim PTX: 5000000 instructions simulated : ctaid=(4,1,0) tid=(15,0,0)
GPGPU-Sim PTX: 5100000 instructions simulated : ctaid=(8,0,0) tid=(15,0,0)
GPGPU-Sim PTX: 5200000 instructions simulated : ctaid=(13,3,0) tid=(15,4,0)
GPGPU-Sim PTX: 5300000 instructions simulated : ctaid=(5,1,0) tid=(15,6,0)
GPGPU-Sim PTX: 5400000 instructions simulated : ctaid=(7,2,0) tid=(15,0,0)
GPGPU-Sim PTX: 5500000 instructions simulated : ctaid=(3,1,0) tid=(12,2,0)
GPGPU-Sim PTX: 5600000 instructions simulated : ctaid=(2,2,0) tid=(13,2,0)
GPGPU-Sim uArch: cycles simulated: 23500  inst.: 5485426 (ipc=233.4) sim_rate=342839 (inst/sec) elapsed = 0:0:00:16 / Wed Mar  2 01:13:22 2016
GPGPU-Sim PTX: 5700000 instructions simulated : ctaid=(12,2,0) tid=(14,2,0)
GPGPU-Sim PTX: 5800000 instructions simulated : ctaid=(15,3,0) tid=(11,1,0)
GPGPU-Sim PTX: 5900000 instructions simulated : ctaid=(11,3,0) tid=(15,4,0)
GPGPU-Sim PTX: 6000000 instructions simulated : ctaid=(15,0,0) tid=(11,1,0)
GPGPU-Sim PTX: 6100000 instructions simulated : ctaid=(10,4,0) tid=(11,1,0)
GPGPU-Sim uArch: cycles simulated: 24500  inst.: 6016356 (ipc=245.6) sim_rate=353903 (inst/sec) elapsed = 0:0:00:17 / Wed Mar  2 01:13:23 2016
GPGPU-Sim PTX: 6200000 instructions simulated : ctaid=(4,2,0) tid=(11,7,0)
GPGPU-Sim PTX: 6300000 instructions simulated : ctaid=(12,1,0) tid=(11,7,0)
GPGPU-Sim PTX: 6400000 instructions simulated : ctaid=(14,1,0) tid=(11,5,0)
GPGPU-Sim PTX: 6500000 instructions simulated : ctaid=(12,1,0) tid=(12,5,0)
GPGPU-Sim uArch: cycles simulated: 26500  inst.: 6386340 (ipc=241.0) sim_rate=354796 (inst/sec) elapsed = 0:0:00:18 / Wed Mar  2 01:13:24 2016
GPGPU-Sim PTX: 6600000 instructions simulated : ctaid=(3,3,0) tid=(11,5,0)
GPGPU-Sim PTX: 6700000 instructions simulated : ctaid=(10,0,0) tid=(11,1,0)
GPGPU-Sim PTX: 6800000 instructions simulated : ctaid=(9,3,0) tid=(11,3,0)
GPGPU-Sim PTX: 6900000 instructions simulated : ctaid=(9,0,0) tid=(11,5,0)
GPGPU-Sim uArch: cycles simulated: 27500  inst.: 6808964 (ipc=247.6) sim_rate=358366 (inst/sec) elapsed = 0:0:00:19 / Wed Mar  2 01:13:25 2016
GPGPU-Sim PTX: 7000000 instructions simulated : ctaid=(14,0,0) tid=(11,7,0)
GPGPU-Sim PTX: 7100000 instructions simulated : ctaid=(3,4,0) tid=(11,7,0)
GPGPU-Sim PTX: 7200000 instructions simulated : ctaid=(14,1,0) tid=(11,1,0)
GPGPU-Sim PTX: 7300000 instructions simulated : ctaid=(6,1,0) tid=(11,1,0)
GPGPU-Sim PTX: 7400000 instructions simulated : ctaid=(10,4,0) tid=(11,3,0)
GPGPU-Sim PTX: 7500000 instructions simulated : ctaid=(4,1,0) tid=(11,1,0)
GPGPU-Sim uArch: cycles simulated: 29000  inst.: 7306308 (ipc=251.9) sim_rate=365315 (inst/sec) elapsed = 0:0:00:20 / Wed Mar  2 01:13:26 2016
GPGPU-Sim PTX: 7600000 instructions simulated : ctaid=(12,0,0) tid=(11,7,0)
GPGPU-Sim PTX: 7700000 instructions simulated : ctaid=(10,4,0) tid=(11,1,0)
GPGPU-Sim PTX: 7800000 instructions simulated : ctaid=(9,4,0) tid=(11,3,0)
GPGPU-Sim PTX: 7900000 instructions simulated : ctaid=(11,0,0) tid=(11,7,0)
GPGPU-Sim PTX: 8000000 instructions simulated : ctaid=(2,3,0) tid=(11,3,0)
GPGPU-Sim uArch: cycles simulated: 30500  inst.: 7828164 (ipc=256.7) sim_rate=372769 (inst/sec) elapsed = 0:0:00:21 / Wed Mar  2 01:13:27 2016
GPGPU-Sim PTX: 8100000 instructions simulated : ctaid=(6,3,0) tid=(11,5,0)
GPGPU-Sim PTX: 8200000 instructions simulated : ctaid=(0,0,0) tid=(11,1,0)
GPGPU-Sim PTX: 8300000 instructions simulated : ctaid=(0,0,0) tid=(11,1,0)
GPGPU-Sim PTX: 8400000 instructions simulated : ctaid=(8,2,0) tid=(11,5,0)
GPGPU-Sim PTX: 8500000 instructions simulated : ctaid=(0,3,0) tid=(11,5,0)
GPGPU-Sim PTX: 8600000 instructions simulated : ctaid=(1,2,0) tid=(11,3,0)
GPGPU-Sim PTX: 8700000 instructions simulated : ctaid=(5,1,0) tid=(0,7,0)
GPGPU-Sim PTX: 8800000 instructions simulated : ctaid=(14,1,0) tid=(5,1,0)
GPGPU-Sim uArch: cycles simulated: 32000  inst.: 8656804 (ipc=270.5) sim_rate=393491 (inst/sec) elapsed = 0:0:00:22 / Wed Mar  2 01:13:28 2016
GPGPU-Sim PTX: 8900000 instructions simulated : ctaid=(4,1,0) tid=(11,3,0)
GPGPU-Sim PTX: 9000000 instructions simulated : ctaid=(15,2,0) tid=(7,4,0)
GPGPU-Sim PTX: 9100000 instructions simulated : ctaid=(11,1,0) tid=(0,2,0)
GPGPU-Sim PTX: 9200000 instructions simulated : ctaid=(0,0,0) tid=(0,6,0)
GPGPU-Sim uArch: cycles simulated: 32500  inst.: 9059208 (ipc=278.7) sim_rate=393878 (inst/sec) elapsed = 0:0:00:23 / Wed Mar  2 01:13:29 2016
GPGPU-Sim PTX: 9300000 instructions simulated : ctaid=(12,1,0) tid=(3,5,0)
GPGPU-Sim PTX: 9400000 instructions simulated : ctaid=(15,2,0) tid=(8,5,0)
GPGPU-Sim PTX: 9500000 instructions simulated : ctaid=(11,3,0) tid=(10,2,0)
GPGPU-Sim PTX: 9600000 instructions simulated : ctaid=(8,3,0) tid=(5,5,0)
GPGPU-Sim PTX: 9700000 instructions simulated : ctaid=(9,3,0) tid=(0,2,0)
GPGPU-Sim PTX: 9800000 instructions simulated : ctaid=(1,2,0) tid=(14,6,0)
GPGPU-Sim PTX: 9900000 instructions simulated : ctaid=(14,3,0) tid=(15,7,0)
GPGPU-Sim PTX: 10000000 instructions simulated : ctaid=(1,4,0) tid=(6,3,0)
GPGPU-Sim uArch: cycles simulated: 33500  inst.: 9740150 (ipc=290.8) sim_rate=405839 (inst/sec) elapsed = 0:0:00:24 / Wed Mar  2 01:13:30 2016
GPGPU-Sim PTX: 10100000 instructions simulated : ctaid=(5,0,0) tid=(2,2,0)
GPGPU-Sim PTX: 10200000 instructions simulated : ctaid=(6,4,0) tid=(6,6,0)
GPGPU-Sim PTX: 10300000 instructions simulated : ctaid=(14,3,0) tid=(4,0,0)
GPGPU-Sim uArch: Shader 14 finished CTA #0 (34997,0), 4 CTAs running
GPGPU-Sim uArch: core: 14, cta: 0 initialized @(34998,0)
GPGPU-Sim uArch: cycles simulated: 35000  inst.: 10127066 (ipc=289.3) sim_rate=405082 (inst/sec) elapsed = 0:0:00:25 / Wed Mar  2 01:13:31 2016
GPGPU-Sim PTX: 10400000 instructions simulated : ctaid=(1,1,0) tid=(3,7,0)
GPGPU-Sim uArch: Shader 8 finished CTA #2 (35022,0), 4 CTAs running
GPGPU-Sim uArch: core:  8, cta: 2 initialized @(35023,0)
GPGPU-Sim uArch: Shader 0 finished CTA #1 (35052,0), 4 CTAs running
GPGPU-Sim uArch: core:  0, cta: 1 initialized @(35053,0)
GPGPU-Sim uArch: Shader 8 finished CTA #4 (35066,0), 4 CTAs running
GPGPU-Sim uArch: core:  8, cta: 4 initialized @(35067,0)
GPGPU-Sim uArch: Shader 0 finished CTA #0 (35074,0), 4 CTAs running
GPGPU-Sim uArch: core:  0, cta: 0 initialized @(35075,0)
GPGPU-Sim uArch: Shader 8 finished CTA #3 (35077,0), 4 CTAs running
GPGPU-Sim uArch: core:  8, cta: 3 initialized @(35078,0)
GPGPU-Sim uArch: Shader 4 finished CTA #1 (35083,0), 4 CTAs running
GPGPU-Sim uArch: core:  4, cta: 1 initialized @(35084,0)
GPGPU-Sim uArch: Shader 6 finished CTA #2 (35105,0), 4 CTAs running
GPGPU-Sim uArch: core:  6, cta: 2 initialized @(35106,0)
GPGPU-Sim uArch: Shader 0 finished CTA #2 (35109,0), 4 CTAs running
GPGPU-Sim uArch: core:  0, cta: 2 initialized @(35110,0)
GPGPU-Sim uArch: Shader 0 finished CTA #3 (35121,0), 4 CTAs running
GPGPU-Sim uArch: core:  0, cta: 3 initialized @(35122,0)
GPGPU-Sim uArch: Shader 0 finished CTA #4 (35129,0), 4 CTAs running
GPGPU-Sim uArch: Shader 2 finished CTA #1 (35129,0), 4 CTAs running
GPGPU-Sim uArch: core:  2, cta: 1 initialized @(35130,0)
GPGPU-Sim uArch: core:  0, cta: 4 initialized @(35130,0)
GPGPU-Sim uArch: Shader 4 finished CTA #2 (35131,0), 4 CTAs running
GPGPU-Sim uArch: core:  4, cta: 2 initialized @(35132,0)
GPGPU-Sim uArch: Shader 6 finished CTA #3 (35148,0), 4 CTAs running
GPGPU-Sim uArch: core:  6, cta: 3 initialized @(35149,0)
GPGPU-Sim uArch: Shader 2 finished CTA #0 (35165,0), 4 CTAs running
GPGPU-Sim uArch: core:  2, cta: 0 initialized @(35166,0)
GPGPU-Sim uArch: Shader 6 finished CTA #4 (35191,0), 4 CTAs running
GPGPU-Sim uArch: core:  6, cta: 4 initialized @(35192,0)
GPGPU-Sim uArch: Shader 2 finished CTA #2 (35211,0), 4 CTAs running
GPGPU-Sim uArch: core:  2, cta: 2 initialized @(35212,0)
GPGPU-Sim uArch: Shader 9 finished CTA #3 (35221,0), 4 CTAs running
GPGPU-Sim uArch: core:  9, cta: 3 initialized @(35222,0)
GPGPU-Sim uArch: Shader 2 finished CTA #3 (35227,0), 4 CTAs running
GPGPU-Sim uArch: core:  2, cta: 3 initialized @(35228,0)
GPGPU-Sim uArch: Shader 9 finished CTA #4 (35229,0), 4 CTAs running
GPGPU-Sim uArch: core:  9, cta: 4 initialized @(35230,0)
GPGPU-Sim uArch: Shader 4 finished CTA #3 (35231,0), 4 CTAs running
GPGPU-Sim uArch: core:  4, cta: 3 initialized @(35232,0)
GPGPU-Sim uArch: Shader 2 finished CTA #4 (35235,0), 4 CTAs running
GPGPU-Sim uArch: core:  2, cta: 4 initialized @(35236,0)
GPGPU-Sim uArch: Shader 4 finished CTA #4 (35245,0), 4 CTAs running
GPGPU-Sim uArch: core:  4, cta: 4 initialized @(35246,0)
GPGPU-Sim uArch: Shader 1 finished CTA #1 (35247,0), 4 CTAs running
GPGPU-Sim uArch: core:  1, cta: 1 initialized @(35248,0)
GPGPU-Sim uArch: Shader 1 finished CTA #0 (35257,0), 4 CTAs running
GPGPU-Sim uArch: Shader 5 finished CTA #2 (35257,0), 4 CTAs running
GPGPU-Sim uArch: core:  5, cta: 2 initialized @(35258,0)
GPGPU-Sim uArch: core:  1, cta: 0 initialized @(35258,0)
GPGPU-Sim uArch: Shader 1 finished CTA #2 (35275,0), 4 CTAs running
GPGPU-Sim uArch: core:  1, cta: 2 initialized @(35276,0)
GPGPU-Sim uArch: Shader 3 finished CTA #0 (35285,0), 4 CTAs running
GPGPU-Sim uArch: Shader 5 finished CTA #3 (35285,0), 4 CTAs running
GPGPU-Sim uArch: core:  3, cta: 0 initialized @(35286,0)
GPGPU-Sim uArch: core:  5, cta: 3 initialized @(35286,0)
GPGPU-Sim uArch: Shader 1 finished CTA #4 (35307,0), 4 CTAs running
GPGPU-Sim uArch: Shader 7 finished CTA #3 (35307,0), 4 CTAs running
GPGPU-Sim uArch: core:  7, cta: 3 initialized @(35308,0)
GPGPU-Sim uArch: core:  1, cta: 4 initialized @(35308,0)
GPGPU-Sim uArch: Shader 3 finished CTA #1 (35309,0), 4 CTAs running
GPGPU-Sim uArch: core:  3, cta: 1 initialized @(35310,0)
GPGPU-Sim PTX: 10500000 instructions simulated : ctaid=(15,5,0) tid=(15,4,0)
GPGPU-Sim uArch: Shader 7 finished CTA #4 (35345,0), 4 CTAs running
GPGPU-Sim uArch: core:  7, cta: 4 initialized @(35346,0)
GPGPU-Sim uArch: Shader 3 finished CTA #2 (35354,0), 4 CTAs running
GPGPU-Sim uArch: core:  3, cta: 2 initialized @(35355,0)
GPGPU-Sim uArch: Shader 3 finished CTA #4 (35390,0), 4 CTAs running
GPGPU-Sim uArch: core:  3, cta: 4 initialized @(35391,0)
GPGPU-Sim uArch: Shader 1 finished CTA #3 (35420,0), 4 CTAs running
GPGPU-Sim uArch: core:  1, cta: 3 initialized @(35421,0)
GPGPU-Sim uArch: Shader 5 finished CTA #4 (35461,0), 4 CTAs running
GPGPU-Sim uArch: core:  5, cta: 4 initialized @(35462,0)
GPGPU-Sim uArch: Shader 3 finished CTA #3 (35505,0), 4 CTAs running
GPGPU-Sim uArch: core:  3, cta: 3 initialized @(35506,0)
GPGPU-Sim uArch: Shader 10 finished CTA #4 (35510,0), 4 CTAs running
GPGPU-Sim uArch: core: 10, cta: 4 initialized @(35511,0)
GPGPU-Sim PTX: 10600000 instructions simulated : ctaid=(6,4,0) tid=(14,2,0)
GPGPU-Sim PTX: 10700000 instructions simulated : ctaid=(3,0,0) tid=(7,2,0)
GPGPU-Sim uArch: cycles simulated: 36000  inst.: 10434465 (ipc=289.8) sim_rate=401325 (inst/sec) elapsed = 0:0:00:26 / Wed Mar  2 01:13:32 2016
GPGPU-Sim PTX: 10800000 instructions simulated : ctaid=(8,0,0) tid=(9,4,0)
GPGPU-Sim PTX: 10900000 instructions simulated : ctaid=(3,6,0) tid=(14,5,0)
GPGPU-Sim PTX: 11000000 instructions simulated : ctaid=(9,0,0) tid=(1,0,0)
GPGPU-Sim PTX: 11100000 instructions simulated : ctaid=(7,3,0) tid=(14,7,0)
GPGPU-Sim PTX: 11200000 instructions simulated : ctaid=(10,5,0) tid=(2,3,0)
GPGPU-Sim PTX: 11300000 instructions simulated : ctaid=(12,5,0) tid=(5,2,0)
GPGPU-Sim uArch: cycles simulated: 37500  inst.: 11038370 (ipc=294.4) sim_rate=408828 (inst/sec) elapsed = 0:0:00:27 / Wed Mar  2 01:13:33 2016
GPGPU-Sim PTX: 11400000 instructions simulated : ctaid=(0,5,0) tid=(12,2,0)
GPGPU-Sim PTX: 11500000 instructions simulated : ctaid=(9,3,0) tid=(6,2,0)
GPGPU-Sim PTX: 11600000 instructions simulated : ctaid=(3,6,0) tid=(12,5,0)
GPGPU-Sim uArch: cycles simulated: 38000  inst.: 11301851 (ipc=297.4) sim_rate=403637 (inst/sec) elapsed = 0:0:00:28 / Wed Mar  2 01:13:34 2016
GPGPU-Sim PTX: 11700000 instructions simulated : ctaid=(6,5,0) tid=(6,1,0)
GPGPU-Sim PTX: 11800000 instructions simulated : ctaid=(1,7,0) tid=(11,3,0)
GPGPU-Sim PTX: 11900000 instructions simulated : ctaid=(5,5,0) tid=(15,2,0)
GPGPU-Sim PTX: 12000000 instructions simulated : ctaid=(0,5,0) tid=(12,2,0)
GPGPU-Sim PTX: 12100000 instructions simulated : ctaid=(4,5,0) tid=(14,6,0)
GPGPU-Sim uArch: cycles simulated: 39000  inst.: 11851029 (ipc=303.9) sim_rate=408656 (inst/sec) elapsed = 0:0:00:29 / Wed Mar  2 01:13:35 2016
GPGPU-Sim PTX: 12200000 instructions simulated : ctaid=(8,3,0) tid=(0,3,0)
GPGPU-Sim PTX: 12300000 instructions simulated : ctaid=(3,5,0) tid=(1,7,0)
GPGPU-Sim uArch: Shader 14 finished CTA #2 (39263,0), 4 CTAs running
GPGPU-Sim uArch: core: 14, cta: 2 initialized @(39264,0)
GPGPU-Sim PTX: 12400000 instructions simulated : ctaid=(9,5,0) tid=(12,1,0)
GPGPU-Sim PTX: 12500000 instructions simulated : ctaid=(7,6,0) tid=(10,0,0)
GPGPU-Sim PTX: 12600000 instructions simulated : ctaid=(11,0,0) tid=(12,2,0)
GPGPU-Sim PTX: 12700000 instructions simulated : ctaid=(12,5,0) tid=(8,1,0)
GPGPU-Sim uArch: cycles simulated: 40000  inst.: 12464011 (ipc=311.6) sim_rate=415467 (inst/sec) elapsed = 0:0:00:30 / Wed Mar  2 01:13:36 2016
GPGPU-Sim PTX: 12800000 instructions simulated : ctaid=(3,5,0) tid=(2,6,0)
GPGPU-Sim PTX: 12900000 instructions simulated : ctaid=(6,0,0) tid=(13,7,0)
GPGPU-Sim uArch: Shader 7 finished CTA #2 (40213,0), 4 CTAs running
GPGPU-Sim uArch: core:  7, cta: 2 initialized @(40214,0)
GPGPU-Sim PTX: 13000000 instructions simulated : ctaid=(15,4,0) tid=(13,0,0)
GPGPU-Sim PTX: 13100000 instructions simulated : ctaid=(12,5,0) tid=(12,6,0)
GPGPU-Sim PTX: 13200000 instructions simulated : ctaid=(7,4,0) tid=(13,5,0)
GPGPU-Sim PTX: 13300000 instructions simulated : ctaid=(5,0,0) tid=(8,4,0)
GPGPU-Sim uArch: cycles simulated: 41000  inst.: 13005080 (ipc=317.2) sim_rate=419518 (inst/sec) elapsed = 0:0:00:31 / Wed Mar  2 01:13:37 2016
GPGPU-Sim PTX: 13400000 instructions simulated : ctaid=(7,0,0) tid=(7,2,0)
GPGPU-Sim PTX: 13500000 instructions simulated : ctaid=(11,5,0) tid=(6,4,0)
GPGPU-Sim PTX: 13600000 instructions simulated : ctaid=(0,6,0) tid=(10,0,0)
GPGPU-Sim PTX: 13700000 instructions simulated : ctaid=(15,5,0) tid=(10,3,0)
GPGPU-Sim PTX: 13800000 instructions simulated : ctaid=(3,7,0) tid=(3,0,0)
GPGPU-Sim PTX: 13900000 instructions simulated : ctaid=(5,1,0) tid=(7,1,0)
GPGPU-Sim uArch: cycles simulated: 42000  inst.: 13545498 (ipc=322.5) sim_rate=423296 (inst/sec) elapsed = 0:0:00:32 / Wed Mar  2 01:13:38 2016
GPGPU-Sim PTX: 14000000 instructions simulated : ctaid=(8,6,0) tid=(11,5,0)
GPGPU-Sim PTX: 14100000 instructions simulated : ctaid=(9,3,0) tid=(5,0,0)
GPGPU-Sim PTX: 14200000 instructions simulated : ctaid=(2,5,0) tid=(4,1,0)
GPGPU-Sim PTX: 14300000 instructions simulated : ctaid=(7,2,0) tid=(13,0,0)
GPGPU-Sim PTX: 14400000 instructions simulated : ctaid=(6,6,0) tid=(12,5,0)
GPGPU-Sim uArch: cycles simulated: 43000  inst.: 14082353 (ipc=327.5) sim_rate=426737 (inst/sec) elapsed = 0:0:00:33 / Wed Mar  2 01:13:39 2016
GPGPU-Sim PTX: 14500000 instructions simulated : ctaid=(6,5,0) tid=(14,5,0)
GPGPU-Sim PTX: 14600000 instructions simulated : ctaid=(15,6,0) tid=(8,7,0)
GPGPU-Sim PTX: 14700000 instructions simulated : ctaid=(8,5,0) tid=(7,2,0)
GPGPU-Sim PTX: 14800000 instructions simulated : ctaid=(9,5,0) tid=(7,0,0)
GPGPU-Sim PTX: 14900000 instructions simulated : ctaid=(4,6,0) tid=(14,3,0)
GPGPU-Sim PTX: 15000000 instructions simulated : ctaid=(8,4,0) tid=(6,2,0)
GPGPU-Sim uArch: cycles simulated: 44000  inst.: 14677780 (ipc=333.6) sim_rate=431699 (inst/sec) elapsed = 0:0:00:34 / Wed Mar  2 01:13:40 2016
GPGPU-Sim PTX: 15100000 instructions simulated : ctaid=(9,6,0) tid=(4,1,0)
GPGPU-Sim PTX: 15200000 instructions simulated : ctaid=(11,4,0) tid=(11,7,0)
GPGPU-Sim PTX: 15300000 instructions simulated : ctaid=(9,0,0) tid=(4,5,0)
GPGPU-Sim PTX: 15400000 instructions simulated : ctaid=(11,5,0) tid=(10,2,0)
GPGPU-Sim PTX: 15500000 instructions simulated : ctaid=(8,6,0) tid=(4,5,0)
GPGPU-Sim uArch: Shader 14 finished CTA #3 (44893,0), 4 CTAs running
GPGPU-Sim uArch: core: 14, cta: 3 initialized @(44894,0)
GPGPU-Sim PTX: 15600000 instructions simulated : ctaid=(11,1,0) tid=(0,4,0)
GPGPU-Sim uArch: cycles simulated: 45000  inst.: 15181901 (ipc=337.4) sim_rate=433768 (inst/sec) elapsed = 0:0:00:35 / Wed Mar  2 01:13:41 2016
GPGPU-Sim PTX: 15700000 instructions simulated : ctaid=(9,4,0) tid=(9,3,0)
GPGPU-Sim PTX: 15800000 instructions simulated : ctaid=(7,5,0) tid=(8,6,0)
GPGPU-Sim PTX: 15900000 instructions simulated : ctaid=(7,3,0) tid=(15,2,0)
GPGPU-Sim PTX: 16000000 instructions simulated : ctaid=(3,6,0) tid=(8,2,0)
GPGPU-Sim uArch: Shader 13 finished CTA #2 (46108,0), 4 CTAs running
GPGPU-Sim uArch: core: 13, cta: 2 initialized @(46109,0)
GPGPU-Sim PTX: 16100000 instructions simulated : ctaid=(15,4,0) tid=(14,0,0)
GPGPU-Sim PTX: 16200000 instructions simulated : ctaid=(1,7,0) tid=(8,2,0)
GPGPU-Sim uArch: cycles simulated: 46500  inst.: 15820174 (ipc=340.2) sim_rate=439449 (inst/sec) elapsed = 0:0:00:36 / Wed Mar  2 01:13:42 2016
GPGPU-Sim PTX: 16300000 instructions simulated : ctaid=(10,0,0) tid=(15,3,0)
GPGPU-Sim PTX: 16400000 instructions simulated : ctaid=(15,4,0) tid=(0,5,0)
GPGPU-Sim PTX: 16500000 instructions simulated : ctaid=(2,5,0) tid=(1,4,0)
GPGPU-Sim PTX: 16600000 instructions simulated : ctaid=(9,1,0) tid=(7,3,0)
GPGPU-Sim PTX: 16700000 instructions simulated : ctaid=(6,0,0) tid=(2,3,0)
GPGPU-Sim uArch: cycles simulated: 47500  inst.: 16297384 (ipc=343.1) sim_rate=440469 (inst/sec) elapsed = 0:0:00:37 / Wed Mar  2 01:13:43 2016
GPGPU-Sim PTX: 16800000 instructions simulated : ctaid=(15,4,0) tid=(1,6,0)
GPGPU-Sim PTX: 16900000 instructions simulated : ctaid=(11,5,0) tid=(0,4,0)
GPGPU-Sim PTX: 17000000 instructions simulated : ctaid=(7,6,0) tid=(13,7,0)
GPGPU-Sim PTX: 17100000 instructions simulated : ctaid=(13,5,0) tid=(15,5,0)
GPGPU-Sim uArch: Shader 5 finished CTA #1 (48463,0), 4 CTAs running
GPGPU-Sim uArch: core:  5, cta: 1 initialized @(48464,0)
GPGPU-Sim PTX: 17200000 instructions simulated : ctaid=(13,5,0) tid=(13,2,0)
GPGPU-Sim uArch: cycles simulated: 48500  inst.: 16757484 (ipc=345.5) sim_rate=440986 (inst/sec) elapsed = 0:0:00:38 / Wed Mar  2 01:13:44 2016
GPGPU-Sim PTX: 17300000 instructions simulated : ctaid=(15,5,0) tid=(12,5,0)
GPGPU-Sim uArch: Shader 4 finished CTA #0 (48887,0), 4 CTAs running
GPGPU-Sim uArch: core:  4, cta: 0 initialized @(48888,0)
GPGPU-Sim PTX: 17400000 instructions simulated : ctaid=(11,1,0) tid=(8,0,0)
GPGPU-Sim PTX: 17500000 instructions simulated : ctaid=(11,6,0) tid=(0,2,0)
GPGPU-Sim PTX: 17600000 instructions simulated : ctaid=(1,5,0) tid=(6,4,0)
GPGPU-Sim uArch: cycles simulated: 49500  inst.: 17184445 (ipc=347.2) sim_rate=440626 (inst/sec) elapsed = 0:0:00:39 / Wed Mar  2 01:13:45 2016
GPGPU-Sim PTX: 17700000 instructions simulated : ctaid=(1,6,0) tid=(6,4,0)
GPGPU-Sim PTX: 17800000 instructions simulated : ctaid=(11,4,0) tid=(13,5,0)
GPGPU-Sim PTX: 17900000 instructions simulated : ctaid=(7,7,0) tid=(4,4,0)
GPGPU-Sim uArch: Shader 12 finished CTA #3 (50170,0), 4 CTAs running
GPGPU-Sim uArch: core: 12, cta: 3 initialized @(50171,0)
GPGPU-Sim uArch: Shader 14 finished CTA #1 (50174,0), 4 CTAs running
GPGPU-Sim uArch: core: 14, cta: 1 initialized @(50175,0)
GPGPU-Sim PTX: 18000000 instructions simulated : ctaid=(4,1,0) tid=(9,1,0)
GPGPU-Sim uArch: Shader 14 finished CTA #0 (50293,0), 4 CTAs running
GPGPU-Sim uArch: core: 14, cta: 0 initialized @(50294,0)
GPGPU-Sim PTX: 18100000 instructions simulated : ctaid=(8,2,0) tid=(2,3,0)
GPGPU-Sim uArch: Shader 10 finished CTA #3 (50572,0), 4 CTAs running
GPGPU-Sim uArch: core: 10, cta: 3 initialized @(50573,0)
GPGPU-Sim PTX: 18200000 instructions simulated : ctaid=(12,6,0) tid=(9,3,0)
GPGPU-Sim uArch: Shader 9 finished CTA #3 (50697,0), 4 CTAs running
GPGPU-Sim uArch: core:  9, cta: 3 initialized @(50698,0)
GPGPU-Sim PTX: 18300000 instructions simulated : ctaid=(10,5,0) tid=(6,1,0)
GPGPU-Sim PTX: 18400000 instructions simulated : ctaid=(12,6,0) tid=(3,7,0)
GPGPU-Sim uArch: Shader 10 finished CTA #4 (50961,0), 4 CTAs running
GPGPU-Sim uArch: core: 10, cta: 4 initialized @(50962,0)
GPGPU-Sim uArch: cycles simulated: 51000  inst.: 17931814 (ipc=351.6) sim_rate=448295 (inst/sec) elapsed = 0:0:00:40 / Wed Mar  2 01:13:46 2016
GPGPU-Sim uArch: Shader 7 finished CTA #4 (51017,0), 4 CTAs running
GPGPU-Sim uArch: core:  7, cta: 4 initialized @(51018,0)
GPGPU-Sim PTX: 18500000 instructions simulated : ctaid=(5,7,0) tid=(14,4,0)
GPGPU-Sim uArch: Shader 9 finished CTA #4 (51189,0), 4 CTAs running
GPGPU-Sim uArch: core:  9, cta: 4 initialized @(51190,0)
GPGPU-Sim PTX: 18600000 instructions simulated : ctaid=(10,5,0) tid=(10,4,0)
GPGPU-Sim uArch: Shader 13 finished CTA #0 (51418,0), 4 CTAs running
GPGPU-Sim uArch: core: 13, cta: 0 initialized @(51419,0)
GPGPU-Sim uArch: cycles simulated: 51500  inst.: 18176343 (ipc=352.9) sim_rate=443325 (inst/sec) elapsed = 0:0:00:41 / Wed Mar  2 01:13:47 2016
GPGPU-Sim PTX: 18700000 instructions simulated : ctaid=(9,6,0) tid=(9,1,0)
GPGPU-Sim uArch: Shader 13 finished CTA #1 (51637,0), 4 CTAs running
GPGPU-Sim uArch: core: 13, cta: 1 initialized @(51638,0)
GPGPU-Sim uArch: Shader 13 finished CTA #3 (51712,0), 4 CTAs running
GPGPU-Sim uArch: core: 13, cta: 3 initialized @(51713,0)
GPGPU-Sim PTX: 18800000 instructions simulated : ctaid=(2,8,0) tid=(9,5,0)
GPGPU-Sim uArch: Shader 5 finished CTA #4 (51946,0), 4 CTAs running
GPGPU-Sim uArch: core:  5, cta: 4 initialized @(51947,0)
GPGPU-Sim uArch: Shader 5 finished CTA #2 (51962,0), 4 CTAs running
GPGPU-Sim uArch: core:  5, cta: 2 initialized @(51963,0)
GPGPU-Sim PTX: 18900000 instructions simulated : ctaid=(7,7,0) tid=(14,0,0)
GPGPU-Sim uArch: Shader 6 finished CTA #2 (52050,0), 4 CTAs running
GPGPU-Sim uArch: core:  6, cta: 2 initialized @(52051,0)
GPGPU-Sim uArch: Shader 6 finished CTA #4 (52131,0), 4 CTAs running
GPGPU-Sim uArch: core:  6, cta: 4 initialized @(52132,0)
GPGPU-Sim PTX: 19000000 instructions simulated : ctaid=(10,6,0) tid=(2,5,0)
GPGPU-Sim uArch: Shader 6 finished CTA #1 (52364,0), 4 CTAs running
[...]
traffic_breakdown_memtocore[LOCAL_ACC_W] = 355144 {8:44393,}
maxmrqlatency = 1347 
maxdqlatency = 0 
maxmflatency = 3464 
averagemflatency = 319 
max_icnt2mem_latency = 1864 
max_icnt2sh_latency = 150370 
mrq_lat_table:11774 	529 	911 	1800 	3942 	3680 	3746 	3415 	1805 	231 	8 	0 	0 	0 	0 	0 	0 	0 	0 	0 	0 	0 	0 	0 	0 	0 	0 	0 	0 	0 	0 	0 	
dq_lat_table:0 	0 	0 	0 	0 	0 	0 	0 	0 	0 	0 	0 	0 	0 	0 	0 	0 	0 	0 	0 	0 	0 	0 	0 	0 	0 	0 	0 	0 	0 	0 	0 	
mf_lat_table:0 	0 	0 	0 	0 	0 	0 	49196 	7930 	2060 	4278 	353 	0 	0 	0 	0 	0 	0 	0 	0 	0 	0 	0 	0 	0 	0 	0 	0 	0 	0 	0 	0 	
icnt2mem_lat_table:0 	0 	0 	20827 	13124 	13475 	28370 	1630 	2124 	2170 	227 	0 	0 	0 	0 	0 	0 	0 	0 	0 	0 	0 	0 	0 	
icnt2sh_lat_table:0 	0 	0 	5057 	4063 	1799 	313 	0 	0 	116 	273 	671 	1597 	3568 	3675 	10901 	22240 	9544 	0 	0 	0 	0 	0 	0 	
mf_lat_pw_table:0 	0 	0 	0 	0 	0 	0 	236 	10 	2 	30 	1 	0 	0 	0 	0 	0 	0 	0 	0 	0 	0 	0 	0 	0 	0 	0 	0 	0 	0 	0 	0 	
maximum concurrent accesses to same row:
dram[0]:        46        56        36        34        26        22        36        25        26        18        18        16        30        26        16        20 
dram[1]:        52        54        34        32        20        22        34        37        30        22        17        34        17        24        23        22 
dram[2]:        62        62        60        56        30        30        29        35        22        26        16        18        16        25        33        22 
dram[3]:        60        62        62        60        32        32        36        41        25        23        16        18        17        17        22        20 
dram[4]:        62        64        60        54        32        34        35        24        24        24        22        16        16        26        22        24 
dram[5]:        62        62        60        56        30        32        23        37        24        26        14        29        34        22        20        35 
maximum service time to same row:
dram[0]:     16565     18988     17391     17031     18556     16782     17262     17143     21349     18931     40346     20319     53002     37489     22071     19628 
dram[1]:     15924     14678     17252     31479     17027     14083     17121     20942     21901     19047     35142     51253     38553     50897     37858     24432 
dram[2]:     24596     20940     17159     30309     17597     22160     17695     18374     18296     20241     18481     26116     23616     28848     31155     37262 
dram[3]:     20306     15909     18368     30059     18107     16644     16720     16853     19334     18013     18985     35731     29736     28333     24762     18864 
dram[4]:     18889     23928     19556     29000     16763     17510     15042     18024     19624     18565     47888     25385     30448     47943     22840     20781 
dram[5]:     10761     22580     18988     29218     16822     16336     16921     16968     18161     20132     22995     28930     28508     28062     34353     22750 
average row accesses per activate:
dram[0]:  5.015385  5.428571  4.877193  5.181818  3.610526  4.150000  3.929412  3.403846  3.669811  3.351351  3.571429  3.515464  4.269231  4.246753  5.056604  4.377049 
dram[1]:  4.301205  5.641510  5.203704  4.709091  3.390476  3.863014  3.591837  4.310811  3.317460  4.290698  3.690476  5.000000  3.858490  3.917647  4.745763  5.000000 
dram[2]:  5.631579  5.698113  6.404255  6.577778  3.373737  4.043478  3.339130  4.271605  3.781250  3.950980  3.083333  4.073171  4.137500  4.218391  4.318841  5.545455 
dram[3]:  5.616667  7.204545  8.484848  5.327869  3.802469  3.623853  3.919540  3.863158  3.094017  3.370690  3.940476  3.181818  4.119048  4.191489  4.864407  3.752809 
dram[4]:  5.821429  8.444445  6.434783  7.605263  3.964286  3.882353  3.837209  3.634615  3.764706  4.231707  3.807229  3.766667  4.057471  4.162500  4.904762  4.568965 
dram[5]:  5.961538  6.480000  6.956522  6.743590  3.437500  3.467391  3.626087  4.049383  3.438596  3.872340  3.595960  3.780488  4.365854  4.871428  3.784091  5.795455 
average row locality = 31841/7562 = 4.210659
number of total memory accesses made:
dram[0]:         0         0         0         0         0         0         0         0         0         0         0         0         0         0         0         0 
dram[1]:         0         0         0         0         0         0         0         0         0         0         0         0         0         0         0         0 
dram[2]:         0         0         0         0         0         0         0         0         0         0         0         0         0         0         0         0 
dram[3]:         0         0         0         0         0         0         0         0         0         0         0         0         0         0         0         0 
dram[4]:         0         0         0         0         0         0         0         0         0         0         0         0         0         0         0         0 
dram[5]:         0         0         0         0         0         0         0         0         0         0         0         0         0         0         0         0 
total accesses: 0
min_bank_accesses = 0!
min_chip_accesses = 0!
number of total read accesses:
dram[0]:       149       133       120       122       136       137       137       142       157       148       129       142       142       142       118       119 
dram[1]:       161       133       120       111       148       118       144       130       173       149       128       118       163       143       125       122 
dram[2]:       142       133       129       128       141       151       153       140       149       162       153       134       145       156       128       131 
dram[3]:       144       135       122       141       125       162       138       148       146       159       134       154       145       166       124       142 
dram[4]:       143       134       128       123       137       136       135       155       154       142       129       145       152       145       134       116 
dram[5]:       137       143       138       113       139       132       168       135       157       146       146       129       149       144       145       114 
total reads: 13362
bank skew: 173/111 = 1.56
chip skew: 2285/2173 = 1.05
number of total write accesses:
dram[0]:       177       171       158       163       207       195       197       212       232       224       196       199       191       185       150       148 
dram[1]:       196       166       161       148       208       164       208       189       245       220       182       162       246       190       155       158 
dram[2]:       179       169       172       168       193       221       231       206       214       241       217       200       186       211       170       174 
dram[3]:       193       182       158       184       183       233       203       219       216       232       197       231       201       228       163       192 
dram[4]:       183       170       168       166       196       194       195       223       230       205       187       194       201       188       175       149 
dram[5]:       173       181       182       150       191       187       249       193       235       218       210       181       209       197       188       141 
total reads: 18479
bank skew: 249/141 = 1.77
chip skew: 3215/2998 = 1.07
average mf latency per bank:
dram[0]:        669       533       740       635       655       660       804       684       612       589       682       669       685       649       708       685
dram[1]:        546       534       620       658       556       669       661       688       507       560       640       712       507       574       600       604
dram[2]:        630       655       736       723       698       648       694       770       694       581       643       671       717       614       691       619
dram[3]:        541       622       727       673       667       545       716       705       618       574       649       569       625       553       658       557
dram[4]:        591       566       736       726       722       712       816       681       640       673       719       682       653       685       654       739
dram[5]:        571       520       630       717       586       624       563       685       547       578       573       634       589       573       531       693
maximum mf latency per bank:
dram[0]:       2289      1651      2820      2053      2284      2499      2344      1891      2280      1755      2183      1944      2519      1644      2134      1984
dram[1]:       1496      1646      2209      2013      2418      1846      1914      1719      1773      1998      2008      1518      1661      1768      1471      1610
dram[2]:       2346      2153      2963      3115      2487      2844      3024      2629      2857      2881      2863      2881      2581      2752      2055      1858
dram[3]:       2189      2713      2556      3464      2483      2813      2819      2777      2938      2955      2072      3102      2105      2236      1611      2280
dram[4]:       2559      2636      3074      3117      2866      2838      2441      2340      2787      2487      2448      2473      2373      2421      2099      2753
dram[5]:       2724      2504      3017      2736      2733      2704      2491      2542      2462      2298      2033      2144      1796      1724      1922      1856

Number of Memory Banks Accessed per Memory Operation per Warp (from 0):
0	0	0	0	0	0	0	0	0	0	0	0	0	0	0	0	0	0	0	0	0	0	0	0	0	0	0	0	0	0	0	0	0	0	0	0	0	0	0	0	0	0	0	0	0	0	0	0	0	0	0	0	0	0	0	0	0	0	0	0	0	0	0	0	0	0	0	0	0	0	0	0	0	0	0	0	0	0	0	0	0	0	0	0	0	0	0	0	0	0	0	0	0	0	0	0	
Average # of Memory Banks Accessed per Memory Operation per Warp=-nan

position of mrq chosen
0	0	0	0	0	0	0	0	0	0	0	0	0	0	0	0	

average position of mrq chosen = -nan
Memory Partition 0: 
Cache L2_bank_000:
MSHR contents

Cache L2_bank_001:
MSHR contents

In Dram Latency Queue (total = 0): 
DRAM[0]: 16 bks, busW=4 BL=4 CL=12, tRRD=2 tCCD=6, tRCD=12 tRAS=28 tRP=12 tRC=40
n_cmd=198489 n_nop=176212 n_act=1271 n_pre=1255 n_req=5178 n_rd=8692 n_write=11059 bw_util=0.199
n_activity=71447 dram_eff=0.5529
bk0: 596a 183688i bk1: 532a 184194i bk2: 480a 183365i bk3: 488a 183703i bk4: 544a 178352i bk5: 548a 178277i bk6: 548a 177494i bk7: 568a 177087i bk8: 628a 179210i bk9: 592a 179815i bk10: 516a 181163i bk11: 568a 180027i bk12: 568a 180043i bk13: 568a 181268i bk14: 472a 183816i bk15: 476a 183543i 
dram_util_bins: 0 0 0 0 0 0 0 0 0 0
dram_eff_bins: 0 0 0 0 0 0 0 0 0 0
mrqq: max=16 avg=2.17497
Memory Partition 1: 
Cache L2_bank_002:
MSHR contents

Cache L2_bank_003:
MSHR contents

In Dram Latency Queue (total = 0): 
DRAM[1]: 16 bks, busW=4 BL=4 CL=12, tRRD=2 tCCD=6, tRCD=12 tRAS=28 tRP=12 tRC=40
n_cmd=198489 n_nop=176224 n_act=1253 n_pre=1237 n_req=5184 n_rd=8744 n_write=11031 bw_util=0.1993
n_activity=70830 dram_eff=0.5584
bk0: 644a 182073i bk1: 532a 183947i bk2: 480a 182752i bk3: 444a 183681i bk4: 592a 178639i bk5: 472a 180353i bk6: 576a 177543i bk7: 520a 179961i bk8: 692a 178362i bk9: 596a 179351i bk10: 512a 181315i bk11: 472a 182786i bk12: 652a 177529i bk13: 572a 179098i bk14: 500a 182619i bk15: 488a 182842i 
dram_util_bins: 0 0 0 0 0 0 0 0 0 0
dram_eff_bins: 0 0 0 0 0 0 0 0 0 0
mrqq: max=16 avg=2.12427
Memory Partition 2: 
Cache L2_bank_004:
MSHR contents

Cache L2_bank_005:
MSHR contents

In Dram Latency Queue (total = 0): 
DRAM[2]: 16 bks, busW=4 BL=4 CL=12, tRRD=2 tCCD=6, tRCD=12 tRAS=28 tRP=12 tRC=40
n_cmd=198489 n_nop=175191 n_act=1280 n_pre=1264 n_req=5427 n_rd=9100 n_write=11654 bw_util=0.2091
n_activity=74510 dram_eff=0.5571
bk0: 568a 183479i bk1: 532a 184630i bk2: 516a 182912i bk3: 512a 183344i bk4: 564a 179755i bk5: 604a 177447i bk6: 612a 176428i bk7: 560a 176841i bk8: 596a 179693i bk9: 648a 178962i bk10: 612a 177947i bk11: 536a 180430i bk12: 580a 179527i bk13: 624a 177983i bk14: 512a 181599i bk15: 524a 182127i 
dram_util_bins: 0 0 0 0 0 0 0 0 0 0
dram_eff_bins: 0 0 0 0 0 0 0 0 0 0
mrqq: max=16 avg=2.27689
Memory Partition 3: 
Cache L2_bank_006:
MSHR contents

Cache L2_bank_007:
MSHR contents

In Dram Latency Queue (total = 0): 
DRAM[3]: 16 bks, busW=4 BL=4 CL=12, tRRD=2 tCCD=6, tRCD=12 tRAS=28 tRP=12 tRC=40
n_cmd=198489 n_nop=174794 n_act=1334 n_pre=1318 n_req=5500 n_rd=9140 n_write=11903 bw_util=0.212
n_activity=75891 dram_eff=0.5546
bk0: 576a 184234i bk1: 540a 185143i bk2: 488a 184143i bk3: 564a 181879i bk4: 500a 181062i bk5: 648a 177838i bk6: 552a 178683i bk7: 592a 176339i bk8: 584a 180618i bk9: 636a 177943i bk10: 536a 179639i bk11: 616a 178547i bk12: 580a 180188i bk13: 664a 176429i bk14: 496a 181861i bk15: 568a 180863i 
dram_util_bins: 0 0 0 0 0 0 0 0 0 0
dram_eff_bins: 0 0 0 0 0 0 0 0 0 0
mrqq: max=16 avg=2.16723
Memory Partition 4: 
Cache L2_bank_008:
MSHR contents

Cache L2_bank_009:
MSHR contents

In Dram Latency Queue (total = 0): 
DRAM[4]: 16 bks, busW=4 BL=4 CL=12, tRRD=2 tCCD=6, tRCD=12 tRAS=28 tRP=12 tRC=40
n_cmd=198489 n_nop=176158 n_act=1180 n_pre=1164 n_req=5232 n_rd=8832 n_write=11155 bw_util=0.2014
n_activity=71180 dram_eff=0.5616
bk0: 572a 184807i bk1: 536a 185068i bk2: 512a 184075i bk3: 492a 183264i bk4: 548a 178928i bk5: 544a 178499i bk6: 540a 178624i bk7: 620a 175426i bk8: 616a 178591i bk9: 568a 179871i bk10: 516a 181478i bk11: 580a 179255i bk12: 608a 178869i bk13: 580a 178419i bk14: 536a 181273i bk15: 464a 182698i 
dram_util_bins: 0 0 0 0 0 0 0 0 0 0
dram_eff_bins: 0 0 0 0 0 0 0 0 0 0
mrqq: max=16 avg=2.34065
Memory Partition 5: 
Cache L2_bank_010:
MSHR contents

Cache L2_bank_011:
MSHR contents

In Dram Latency Queue (total = 0): 
DRAM[5]: 16 bks, busW=4 BL=4 CL=12, tRRD=2 tCCD=6, tRCD=12 tRAS=28 tRP=12 tRC=40
n_cmd=198489 n_nop=175695 n_act=1244 n_pre=1228 n_req=5320 n_rd=8940 n_write=11382 bw_util=0.2048
n_activity=72646 dram_eff=0.5595
bk0: 548a 184682i bk1: 572a 183552i bk2: 552a 182003i bk3: 452a 183609i bk4: 556a 179285i bk5: 528a 178040i bk6: 672a 174724i bk7: 540a 177847i bk8: 628a 179338i bk9: 584a 179283i bk10: 584a 179373i bk11: 516a 180328i bk12: 596a 178280i bk13: 576a 180493i bk14: 580a 179964i bk15: 456a 182823i 
dram_util_bins: 0 0 0 0 0 0 0 0 0 0
dram_eff_bins: 0 0 0 0 0 0 0 0 0 0
mrqq: max=16 avg=2.23746

========= L2 cache stats =========
L2_cache_bank[0]: Access = 6856, Miss = 1088, Miss_rate = 0.159, Pending_hits = 98, Reservation_fails = 1388
L2_cache_bank[1]: Access = 6980, Miss = 1085, Miss_rate = 0.155, Pending_hits = 87, Reservation_fails = 621
L2_cache_bank[2]: Access = 6692, Miss = 1162, Miss_rate = 0.174, Pending_hits = 104, Reservation_fails = 807
L2_cache_bank[3]: Access = 6727, Miss = 1024, Miss_rate = 0.152, Pending_hits = 82, Reservation_fails = 401
L2_cache_bank[4]: Access = 6833, Miss = 1140, Miss_rate = 0.167, Pending_hits = 84, Reservation_fails = 830
L2_cache_bank[5]: Access = 7055, Miss = 1135, Miss_rate = 0.161, Pending_hits = 93, Reservation_fails = 406
L2_cache_bank[6]: Access = 7012, Miss = 1078, Miss_rate = 0.154, Pending_hits = 82, Reservation_fails = 762
L2_cache_bank[7]: Access = 7241, Miss = 1207, Miss_rate = 0.167, Pending_hits = 91, Reservation_fails = 582
L2_cache_bank[8]: Access = 6722, Miss = 1112, Miss_rate = 0.165, Pending_hits = 88, Reservation_fails = 541
L2_cache_bank[9]: Access = 6457, Miss = 1096, Miss_rate = 0.170, Pending_hits = 76, Reservation_fails = 589
L2_cache_bank[10]: Access = 6819, Miss = 1179, Miss_rate = 0.173, Pending_hits = 80, Reservation_fails = 658
L2_cache_bank[11]: Access = 6553, Miss = 1056, Miss_rate = 0.161, Pending_hits = 88, Reservation_fails = 377
L2_total_cache_accesses = 81947
L2_total_cache_misses = 13362
L2_total_cache_miss_rate = 0.1631
L2_total_cache_pending_hits = 1053
L2_total_cache_reservation_fails = 7962
L2_total_cache_breakdown:
	L2_cache_stats_breakdown[GLOBAL_ACC_R][HIT] = 3607
	L2_cache_stats_breakdown[GLOBAL_ACC_R][HIT_RESERVED] = 14
	L2_cache_stats_breakdown[GLOBAL_ACC_R][MISS] = 163
	L2_cache_stats_breakdown[GLOBAL_ACC_R][RESERVATION_FAIL] = 244
	L2_cache_stats_breakdown[LOCAL_ACC_R][HIT] = 6805
	L2_cache_stats_breakdown[LOCAL_ACC_R][HIT_RESERVED] = 162
	L2_cache_stats_breakdown[LOCAL_ACC_R][MISS] = 451
	L2_cache_stats_breakdown[CONST_ACC_R][HIT] = 22
	L2_cache_stats_breakdown[CONST_ACC_R][HIT_RESERVED] = 6
	L2_cache_stats_breakdown[CONST_ACC_R][MISS] = 2
	L2_cache_stats_breakdown[CONST_ACC_R][RESERVATION_FAIL] = 536
	L2_cache_stats_breakdown[GLOBAL_ACC_W][HIT] = 5449
	L2_cache_stats_breakdown[GLOBAL_ACC_W][HIT_RESERVED] = 695
	L2_cache_stats_breakdown[GLOBAL_ACC_W][MISS] = 2048
	L2_cache_stats_breakdown[GLOBAL_ACC_W][RESERVATION_FAIL] = 3
	L2_cache_stats_breakdown[LOCAL_ACC_W][HIT] = 35066
	L2_cache_stats_breakdown[LOCAL_ACC_W][HIT_RESERVED] = 22
	L2_cache_stats_breakdown[LOCAL_ACC_W][MISS] = 9305
	L2_cache_stats_breakdown[LOCAL_ACC_W][RESERVATION_FAIL] = 305
	L2_cache_stats_breakdown[L1_WRBK_ACC][HIT] = 3730
	L2_cache_stats_breakdown[L1_WRBK_ACC][MISS] = 1340
	L2_cache_stats_breakdown[INST_ACC_R][HIT] = 12853
	L2_cache_stats_breakdown[INST_ACC_R][HIT_RESERVED] = 154
	L2_cache_stats_breakdown[INST_ACC_R][MISS] = 53
	L2_cache_stats_breakdown[INST_ACC_R][RESERVATION_FAIL] = 6874
L2_cache_data_port_util = 0.143
L2_cache_fill_port_util = 0.030

icnt_total_pkts_mem_to_simt=173985
icnt_total_pkts_simt_to_mem=292861
LD_mem_lat_dist  0 0 0 0 0 0 0 0 0 0 0 0 0 0 0 0 0 0 0 0 0 0 0 0 0 0 0
ST_mem_lat_dist  0 0 0 0 0 0 0 0 0 0 0 0 0 0 0 0 0 0 0 0 0 0 0 0 0 0 0
----------------------------Interconnect-DETAILS--------------------------------
Class 0:
Packet latency average = 19.796
	minimum = 6
	maximum = 1503
Network latency average = 15.2964
	minimum = 6
	maximum = 1108
Slowest packet = 664
Flit latency average = 14.8362
	minimum = 6
	maximum = 1104
Slowest flit = 13700
Fragmentation average = 0.262662
	minimum = 0
	maximum = 909
Injected packet rate average = 0.039119
	minimum = 0.0337233 (at node 2)
	maximum = 0.0451816 (at node 22)
Accepted packet rate average = 0.039119
	minimum = 0.031788 (at node 2)
	maximum = 0.0481542 (at node 22)
Injected flit rate average = 0.114986
	minimum = 0.0904563 (at node 24)
	maximum = 0.140246 (at node 4)
Accepted flit rate average= 0.114986
	minimum = 0.0662827 (at node 0)
	maximum = 0.170818 (at node 22)
Injected packet length average = 2.93939
Accepted packet length average = 2.93939
Total in-flight flits = 0 (0 measured)
====== Overall Traffic Statistics ======
====== Traffic class 0 ======
Packet latency average = 19.796 (1 samples)
	minimum = 6 (1 samples)
	maximum = 1503 (1 samples)
Network latency average = 15.2964 (1 samples)
	minimum = 6 (1 samples)
	maximum = 1108 (1 samples)
Flit latency average = 14.8362 (1 samples)
	minimum = 6 (1 samples)
	maximum = 1104 (1 samples)
Fragmentation average = 0.262662 (1 samples)
	minimum = 0 (1 samples)
	maximum = 909 (1 samples)
Injected packet rate average = 0.039119 (1 samples)
	minimum = 0.0337233 (1 samples)
	maximum = 0.0451816 (1 samples)
Accepted packet rate average = 0.039119 (1 samples)
	minimum = 0.031788 (1 samples)
	maximum = 0.0481542 (1 samples)
Injected flit rate average = 0.114986 (1 samples)
	minimum = 0.0904563 (1 samples)
	maximum = 0.140246 (1 samples)
Accepted flit rate average = 0.114986 (1 samples)
	minimum = 0.0662827 (1 samples)
	maximum = 0.170818 (1 samples)
Injected packet size average = 2.93939 (1 samples)
Accepted packet size average = 2.93939 (1 samples)
Hops average = 1 (1 samples)
----------------------------END-of-Interconnect-DETAILS-------------------------


gpgpu_simulation_time = 0 days, 0 hrs, 2 min, 25 sec (145 sec)
gpgpu_simulation_rate = 432293 (inst/sec)
gpgpu_simulation_rate = 1037 (cycle/sec)
GPGPU-Sim API: Stream Manager State
GPGPU-Sim: detected inactive GPU simulation thread

checksum=75ef40cb5b8e
Kernel Time: 142953.671875 
