

        *** GPGPU-Sim Simulator Version 3.2.2  [build 0] ***


GPGPU-Sim PTX: simulation mode 0 (can change with PTX_SIM_MODE_FUNC environment variable:
               1=functional simulation only, 0=detailed performance simulator)
GPGPU-Sim: Configuration options:

-network_mode                           1 # Interconnection network mode
-inter_config_file   config_fermi_islip.icnt # Interconnection network config file
-gpgpu_ptx_use_cuobjdump                    1 # Use cuobjdump to extract ptx and sass from binaries
-gpgpu_experimental_lib_support                    0 # Try to extract code from cuda libraries [Broken because of unknown cudaGetExportTable]
-gpgpu_ptx_convert_to_ptxplus                    0 # Convert SASS (native ISA) to ptxplus and run ptxplus
-gpgpu_ptx_force_max_capability                   20 # Force maximum compute capability
-gpgpu_ptx_inst_debug_to_file                    0 # Dump executed instructions' debug information to file
-gpgpu_ptx_inst_debug_file       inst_debug.txt # Executed instructions' debug output file
-gpgpu_ptx_inst_debug_thread_uid                    1 # Thread UID for executed instructions' debug output
-gpgpu_simd_model                       1 # 1 = post-dominator
-gpgpu_shader_core_pipeline              1536:32 # shader core pipeline config, i.e., {<nthread>:<warpsize>}
-gpgpu_tex_cache:l1  4:128:24,L:R:m:N:L,F:128:4,128:2 # per-shader L1 texture cache  (READ-ONLY) config  {<nsets>:<bsize>:<assoc>,<rep>:<wr>:<alloc>:<wr_alloc>,<mshr>:<N>:<merge>,<mq>:<rf>}
-gpgpu_const_cache:l1 64:64:2,L:R:f:N:L,A:2:32,4 # per-shader L1 constant memory cache  (READ-ONLY) config  {<nsets>:<bsize>:<assoc>,<rep>:<wr>:<alloc>:<wr_alloc>,<mshr>:<N>:<merge>,<mq>} 
-gpgpu_cache:il1     4:128:4,L:R:f:N:L,A:2:32,4 # shader L1 instruction cache config  {<nsets>:<bsize>:<assoc>,<rep>:<wr>:<alloc>:<wr_alloc>,<mshr>:<N>:<merge>,<mq>} 
-gpgpu_cache:dl1     32:128:8,L:L:m:N:H,A:32:8,8 # per-shader L1 data cache config  {<nsets>:<bsize>:<assoc>,<rep>:<wr>:<alloc>:<wr_alloc>,<mshr>:<N>:<merge>,<mq> | none}
-gpgpu_cache:dl1PrefL1                 none # per-shader L1 data cache config  {<nsets>:<bsize>:<assoc>,<rep>:<wr>:<alloc>:<wr_alloc>,<mshr>:<N>:<merge>,<mq> | none}
-gpgpu_cache:dl1PreShared                 none # per-shader L1 data cache config  {<nsets>:<bsize>:<assoc>,<rep>:<wr>:<alloc>:<wr_alloc>,<mshr>:<N>:<merge>,<mq> | none}
-gmem_skip_L1D                          0 # global memory access skip L1D cache (implements -Xptxas -dlcm=cg, default=no skip)
-gpgpu_perfect_mem                      0 # enable perfect memory mode (no cache miss)
-n_regfile_gating_group                    4 # group of lanes that should be read/written together)
-gpgpu_clock_gated_reg_file                    0 # enable clock gated reg file for power calculations
-gpgpu_clock_gated_lanes                    0 # enable clock gated lanes for power calculations
-gpgpu_shader_registers                32768 # Number of registers per shader core. Limits number of concurrent CTAs. (default 8192)
-gpgpu_shader_cta                       8 # Maximum number of concurrent CTAs in shader (default 8)
-gpgpu_num_cta_barriers                   16 # Maximum number of named barriers per CTA (default 16)
-gpgpu_n_clusters                      15 # number of processing clusters
-gpgpu_n_cores_per_cluster                    1 # number of simd cores per cluster
-gpgpu_n_cluster_ejection_buffer_size                    8 # number of packets in ejection buffer
-gpgpu_n_ldst_response_buffer_size                    2 # number of response packets in ld/st unit ejection buffer
-gpgpu_shmem_size                   16384 # Size of shared memory per shader core (default 16kB)
-gpgpu_shmem_size                   49152 # Size of shared memory per shader core (default 16kB)
-gpgpu_shmem_size_PrefL1                16384 # Size of shared memory per shader core (default 16kB)
-gpgpu_shmem_size_PrefShared                16384 # Size of shared memory per shader core (default 16kB)
-gpgpu_shmem_num_banks                   32 # Number of banks in the shared memory in each shader core (default 16)
-gpgpu_shmem_limited_broadcast                    0 # Limit shared memory to do one broadcast per cycle (default on)
-gpgpu_shmem_warp_parts                    1 # Number of portions a warp is divided into for shared memory bank conflict check 
-gpgpu_warpdistro_shader                   -1 # Specify which shader core to collect the warp size distribution from
-gpgpu_warp_issue_shader                    0 # Specify which shader core to collect the warp issue distribution from
-gpgpu_local_mem_map                    1 # Mapping from local memory space address to simulated GPU physical address space (default = enabled)
-gpgpu_num_reg_banks                   16 # Number of register banks (default = 8)
-gpgpu_reg_bank_use_warp_id                    0 # Use warp ID in mapping registers to banks (default = off)
-gpgpu_operand_collector_num_units_sp                    6 # number of collector units (default = 4)
-gpgpu_operand_collector_num_units_sfu                    8 # number of collector units (default = 4)
-gpgpu_operand_collector_num_units_mem                    2 # number of collector units (default = 2)
-gpgpu_operand_collector_num_units_gen                    0 # number of collector units (default = 0)
-gpgpu_operand_collector_num_in_ports_sp                    2 # number of collector unit in ports (default = 1)
-gpgpu_operand_collector_num_in_ports_sfu                    1 # number of collector unit in ports (default = 1)
-gpgpu_operand_collector_num_in_ports_mem                    1 # number of collector unit in ports (default = 1)
-gpgpu_operand_collector_num_in_ports_gen                    0 # number of collector unit in ports (default = 0)
-gpgpu_operand_collector_num_out_ports_sp                    2 # number of collector unit in ports (default = 1)
-gpgpu_operand_collector_num_out_ports_sfu                    1 # number of collector unit in ports (default = 1)
-gpgpu_operand_collector_num_out_ports_mem                    1 # number of collector unit in ports (default = 1)
-gpgpu_operand_collector_num_out_ports_gen                    0 # number of collector unit in ports (default = 0)
-gpgpu_coalesce_arch                   13 # Coalescing arch (default = 13, anything else is off for now)
-gpgpu_num_sched_per_core                    2 # Number of warp schedulers per core
-gpgpu_max_insn_issue_per_warp                    1 # Max number of instructions that can be issued per warp in one cycle by scheduler
-gpgpu_simt_core_sim_order                    1 # Select the simulation order of cores in a cluster (0=Fix, 1=Round-Robin)
-gpgpu_pipeline_widths        2,1,1,2,1,1,2 # Pipeline widths ID_OC_SP,ID_OC_SFU,ID_OC_MEM,OC_EX_SP,OC_EX_SFU,OC_EX_MEM,EX_WB
-gpgpu_num_sp_units                     2 # Number of SP units (default=1)
-gpgpu_num_sfu_units                    1 # Number of SF units (default=1)
-gpgpu_num_mem_units                    1 # Number if ldst units (default=1) WARNING: not hooked up to anything
-gpgpu_scheduler                      gto # Scheduler configuration: < lrr | gto | two_level_active > If two_level_active:<num_active_warps>:<inner_prioritization>:<outer_prioritization>For complete list of prioritization values see shader.h enum scheduler_prioritization_typeDefault: gto
-gpgpu_dram_scheduler                    1 # 0 = fifo, 1 = FR-FCFS (defaul)
-gpgpu_dram_partition_queues              8:8:8:8 # i2$:$2d:d2$:$2i
-l2_ideal                               0 # Use a ideal L2 cache that always hit
-gpgpu_cache:dl2     64:128:8,L:B:m:W:L,A:32:4,4:0,32 # unified banked L2 data cache config  {<nsets>:<bsize>:<assoc>,<rep>:<wr>:<alloc>:<wr_alloc>,<mshr>:<N>:<merge>,<mq>}
-gpgpu_cache:dl2_texture_only                    0 # L2 cache used for texture only
-gpgpu_n_mem                            6 # number of memory modules (e.g. memory controllers) in gpu
-gpgpu_n_sub_partition_per_mchannel                    2 # number of memory subpartition in each memory module
-gpgpu_n_mem_per_ctrlr                    2 # number of memory chips per memory controller
-gpgpu_memlatency_stat                   14 # track and display latency statistics 0x2 enables MC, 0x4 enables queue logs
-gpgpu_frfcfs_dram_sched_queue_size                   16 # 0 = unlimited (default); # entries per chip
-gpgpu_dram_return_queue_size                  116 # 0 = unlimited (default); # entries per chip
-gpgpu_dram_buswidth                    4 # default = 4 bytes (8 bytes per cycle at DDR)
-gpgpu_dram_burst_length                    8 # Burst length of each DRAM request (default = 4 data bus cycle)
-dram_data_command_freq_ratio                    4 # Frequency ratio between DRAM data bus and command bus (default = 2 times, i.e. DDR)
-gpgpu_dram_timing_opt nbk=16:CCD=2:RRD=6:RCD=12:RAS=28:RP=12:RC=40: CL=12:WL=4:CDLR=5:WR=12:nbkgrp=4:CCDL=3:RTPL=2 # DRAM timing parameters = {nbk:tCCD:tRRD:tRCD:tRAS:tRP:tRC:CL:WL:tCDLR:tWR:nbkgrp:tCCDL:tRTPL}
-rop_latency                          120 # ROP queue latency (default 85)
-dram_latency                         100 # DRAM latency (default 30)
-gpgpu_mem_addr_mapping dramid@8;00000000.00000000.00000000.00000000.0000RRRR.RRRRRRRR.BBBCCCCB.CCSSSSSS # mapping memory address to dram model {dramid@<start bit>;<memory address map>}
-gpgpu_mem_addr_test                    0 # run sweep test to check address mapping for aliased address
-gpgpu_mem_address_mask                    1 # 0 = old addressing mask, 1 = new addressing mask, 2 = new add. mask + flipped bank sel and chip sel bits
-gpuwattch_xml_file  gpuwattch_gtx480.xml # GPUWattch XML file
-power_simulation_enabled                    0 # Turn on power simulator (1=On, 0=Off)
-power_per_cycle_dump                    0 # Dump detailed power output each cycle
-power_trace_enabled                    0 # produce a file for the power trace (1=On, 0=Off)
-power_trace_zlevel                     6 # Compression level of the power trace output log (0=no comp, 9=highest)
-steady_power_levels_enabled                    0 # produce a file for the steady power levels (1=On, 0=Off)
-steady_state_definition                  8:4 # allowed deviation:number of samples
-gpgpu_max_cycle                        0 # terminates gpu simulation early (0 = no limit)
-gpgpu_max_insn                         0 # terminates gpu simulation early (0 = no limit)
-gpgpu_max_cta                          0 # terminates gpu simulation early (0 = no limit)
-gpgpu_runtime_stat                   500 # display runtime statistics such as dram utilization {<freq>:<flag>}
-liveness_message_freq                    1 # Minimum number of seconds between simulation liveness messages (0 = always print)
-gpgpu_flush_l1_cache                    0 # Flush L1 cache at the end of each kernel call
-gpgpu_flush_l2_cache                    0 # Flush L2 cache at the end of each kernel call
-gpgpu_deadlock_detect                    1 # Stop the simulation at deadlock (1=on (default), 0=off)
-gpgpu_ptx_instruction_classification                    0 # if enabled will classify ptx instruction types per kernel (Max 255 kernels now)
-gpgpu_ptx_sim_mode                     0 # Select between Performance (default) or Functional simulation (1)
-gpgpu_clock_domains 700.0:700.0:700.0:924.0 # Clock Domain Frequencies in MhZ {<Core Clock>:<ICNT Clock>:<L2 Clock>:<DRAM Clock>}
-gpgpu_max_concurrent_kernel                    8 # maximum kernels that can run concurrently on GPU
-gpgpu_cflog_interval                    0 # Interval between each snapshot in control flow logger
-visualizer_enabled                     0 # Turn on visualizer output (1=On, 0=Off)
-visualizer_outputfile                 NULL # Specifies the output log file for visualizer
-visualizer_zlevel                      6 # Compression level of the visualizer output log (0=no comp, 9=highest)
-trace_enabled                          0 # Turn on traces
-trace_components                    none # comma seperated list of traces to enable. Complete list found in trace_streams.tup. Default none
-trace_sampling_core                    0 # The core which is printed using CORE_DPRINTF. Default 0
-trace_sampling_memory_partition                   -1 # The memory partition which is printed using MEMPART_DPRINTF. Default -1 (i.e. all)
-enable_ptx_file_line_stats                    1 # Turn on PTX source line statistic profiling. (1 = On)
-ptx_line_stats_filename gpgpu_inst_stats.txt # Output file for PTX source line statistics.
-save_embedded_ptx                      0 # saves ptx files embedded in binary as <n>.ptx
-keep                                   0 # keep intermediate files created by GPGPU-Sim when interfacing with external programs
-gpgpu_ptx_save_converted_ptxplus                    0 # Saved converted ptxplus to a file
-ptx_opcode_latency_int         4,13,4,5,145 # Opcode latencies for integers <ADD,MAX,MUL,MAD,DIV>Default 1,1,19,25,145
-ptx_opcode_latency_fp          4,13,4,5,39 # Opcode latencies for single precision floating points <ADD,MAX,MUL,MAD,DIV>Default 1,1,1,1,30
-ptx_opcode_latency_dp         8,19,8,8,330 # Opcode latencies for double precision floating points <ADD,MAX,MUL,MAD,DIV>Default 8,8,8,8,335
-ptx_opcode_initiation_int            1,2,2,1,8 # Opcode initiation intervals for integers <ADD,MAX,MUL,MAD,DIV>Default 1,1,4,4,32
-ptx_opcode_initiation_fp            1,2,1,1,4 # Opcode initiation intervals for single precision floating points <ADD,MAX,MUL,MAD,DIV>Default 1,1,1,1,5
-ptx_opcode_initiation_dp         8,16,8,8,130 # Opcode initiation intervals for double precision floating points <ADD,MAX,MUL,MAD,DIV>Default 8,8,8,8,130
DRAM Timing Options:
nbk                                    16 # number of banks
CCD                                     2 # column to column delay
RRD                                     6 # minimal delay between activation of rows in different banks
RCD                                    12 # row to column delay
RAS                                    28 # time needed to activate row
RP                                     12 # time needed to precharge (deactivate) row
RC                                     40 # row cycle time
CDLR                                    5 # switching from write to read (changes tWTR)
WR                                     12 # last data-in to row precharge
CL                                     12 # CAS latency
WL                                      4 # Write latency
nbkgrp                                  4 # number of bank groups
CCDL                                    3 # column to column delay between accesses to different bank groups
RTPL                                    2 # read to precharge delay between accesses to different bank groups
Total number of memory sub partition = 12
addr_dec_mask[CHIP]  = 0000000000000000 	high:64 low:0
addr_dec_mask[BK]    = 000000000000e100 	high:16 low:8
addr_dec_mask[ROW]   = 000000000fff0000 	high:28 low:16
addr_dec_mask[COL]   = 0000000000001eff 	high:13 low:0
addr_dec_mask[BURST] = 000000000000003f 	high:6 low:0
sub_partition_id_mask = 0000000000000100
GPGPU-Sim uArch: clock freqs: 700000000.000000:700000000.000000:700000000.000000:924000000.000000
GPGPU-Sim uArch: clock periods: 0.00000000142857142857:0.00000000142857142857:0.00000000142857142857:0.00000000108225108225
*** Initializing Memory Statistics ***
GPGPU-Sim uArch: interconnect node map (shaderID+MemID to icntID)
GPGPU-Sim uArch: Memory nodes ID start from index: 15
GPGPU-Sim uArch:    0   1   2   3   4
GPGPU-Sim uArch:    5   6   7   8   9
GPGPU-Sim uArch:   10  11  12  13  14
GPGPU-Sim uArch:   15  16  17  18  19
GPGPU-Sim uArch:   20  21  22  23  24
GPGPU-Sim uArch:   25  26
GPGPU-Sim uArch: interconnect node reverse map (icntID to shaderID+MemID)
GPGPU-Sim uArch: Memory nodes start from ID: 15
GPGPU-Sim uArch:    0   1   2   3   4
GPGPU-Sim uArch:    5   6   7   8   9
GPGPU-Sim uArch:   10  11  12  13  14
GPGPU-Sim uArch:   15  16  17  18  19
GPGPU-Sim uArch:   20  21  22  23  24
GPGPU-Sim uArch:   25  26
316bcbff5f8f022bb22b20bb4721e93e  /sciclone/data20/adwait/applications/benchmarks/CUDA/RAY/gpgpu_ptx_sim__RAY
GPGPU-Sim uArch: performance model initialization complete.
GPGPU-Sim PTX: __cudaRegisterFatBinary, fat_cubin_handle = 1, filename=rayTracing.cu
self exe links to: /sciclone/data20/adwait/applications/benchmarks/CUDA/RAY/gpgpu_ptx_sim__RAY
Running md5sum using "md5sum /sciclone/data20/adwait/applications/benchmarks/CUDA/RAY/gpgpu_ptx_sim__RAY "
Parsing file _cuobjdump_complete_output_ga7N0l
######### cuobjdump parser ########
## Adding new section ELF
Adding arch: sm_20
Adding identifier: rayTracing.cu
## Adding new section PTX
Adding ptx filename: _cuobjdump_1.ptx
Adding arch: sm_20
Adding identifier: rayTracing.cu
Done parsing!!!
GPGPU-Sim PTX: __cudaRegisterFunction _Z6renderPjP4Nodejjff : hostFun 0x0x40ce13, fat_cubin_handle = 1
GPGPU-Sim PTX: allocating stack frame region for .param "__cudaretf__Zmi6float3S_" from 0x0 to 0xc
GPGPU-Sim PTX: allocating stack frame region for .param "__cudaparmf1__Zmi6float3S_" from 0xc to 0x18
GPGPU-Sim PTX: allocating stack frame region for .param "__cudaparmf2__Zmi6float3S_" from 0x18 to 0x24
GPGPU-Sim PTX: allocating stack frame region for .param "__cudaretf__Z9normalize6float3" from 0x0 to 0xc
GPGPU-Sim PTX: allocating stack frame region for .param "__cudaparmf1__Z9normalize6float3" from 0xc to 0x18
GPGPU-Sim PTX: allocating stack frame region for .param "__cudaretf__Z18intersectionSphere5Rayon6float3f" from 0x0 to 0x4
GPGPU-Sim PTX: allocating stack frame region for .param "__cudaparmf1__Z18intersectionSphere5Rayon6float3f" from 0x4 to 0x1c
GPGPU-Sim PTX: allocating stack frame region for .param "__cudaparmf2__Z18intersectionSphere5Rayon6float3f" from 0x1c to 0x28
GPGPU-Sim PTX: allocating stack frame region for .param "__cudaparmf3__Z18intersectionSphere5Rayon6float3f" from 0x28 to 0x2c
GPGPU-Sim PTX: allocating stack frame region for .param "__cudaretf__Z16intersectionPlan5Rayon6float3S0_" from 0x0 to 0x4
GPGPU-Sim PTX: allocating stack frame region for .param "__cudaparmf1__Z16intersectionPlan5Rayon6float3S0_" from 0x4 to 0x1c
GPGPU-Sim PTX: allocating stack frame region for .param "__cudaparmf2__Z16intersectionPlan5Rayon6float3S0_" from 0x1c to 0x28
GPGPU-Sim PTX: allocating stack frame region for .param "__cudaparmf3__Z16intersectionPlan5Rayon6float3S0_" from 0x28 to 0x34
GPGPU-Sim PTX: allocating stack frame region for .param "__cudaretf__Z10getNormale6float3S_" from 0x0 to 0xc
GPGPU-Sim PTX: allocating stack frame region for .param "__cudaparmf1__Z10getNormale6float3S_" from 0xc to 0x18
GPGPU-Sim PTX: allocating stack frame region for .param "__cudaparmf2__Z10getNormale6float3S_" from 0x18 to 0x24
GPGPU-Sim PTX: allocating stack frame region for .param "__cudaretf__Z11getNormaleP6float3" from 0x0 to 0xc
GPGPU-Sim PTX: allocating stack frame region for .param "__cudaparmf1__Z11getNormaleP6float3" from 0xc to 0x18
GPGPU-Sim PTX: allocating stack frame region for .param "__cudaretf__Z14rgbaFloatToInt6float4" from 0x0 to 0x4
GPGPU-Sim PTX: allocating stack frame region for .param "__cudaparmf1__Z14rgbaFloatToInt6float4" from 0x4 to 0x14
GPGPU-Sim PTX: allocating stack frame region for .param "__cudaretf__Z12notShadowRayP4Node6float3S1_f" from 0x0 to 0x4
GPGPU-Sim PTX: allocating stack frame region for .param "__cudaparmf1__Z12notShadowRayP4Node6float3S1_f" from 0x4 to 0xc
GPGPU-Sim PTX: allocating stack frame region for .param "__cudaparmf2__Z12notShadowRayP4Node6float3S1_f" from 0xc to 0x18
GPGPU-Sim PTX: allocating stack frame region for .param "__cudaparmf3__Z12notShadowRayP4Node6float3S1_f" from 0x18 to 0x24
GPGPU-Sim PTX: allocating stack frame region for .param "__cudaparmf4__Z12notShadowRayP4Node6float3S1_f" from 0x24 to 0x28
GPGPU-Sim PTX: allocating stack frame region for .param "__cudaretf__Z15float2int_pow20f" from 0x0 to 0x4
GPGPU-Sim PTX: allocating stack frame region for .param "__cudaparmf1__Z15float2int_pow20f" from 0x4 to 0x8
GPGPU-Sim PTX: allocating stack frame region for .param "__cudaretf__Z15float2int_pow50f" from 0x0 to 0x4
GPGPU-Sim PTX: allocating stack frame region for .param "__cudaparmf1__Z15float2int_pow50f" from 0x4 to 0x8
GPGPU-Sim PTX: allocating stack frame region for .param "__cudaparmf1__ZN4dim3C1Ejjj" from 0x0 to 0x8
GPGPU-Sim PTX: allocating stack frame region for .param "__cudaparmf2__ZN4dim3C1Ejjj" from 0x8 to 0xc
GPGPU-Sim PTX: allocating stack frame region for .param "__cudaparmf3__ZN4dim3C1Ejjj" from 0xc to 0x10
GPGPU-Sim PTX: allocating stack frame region for .param "__cudaparmf4__ZN4dim3C1Ejjj" from 0x10 to 0x14
GPGPU-Sim PTX: instruction assembly for function '_Zmi6float3S_'...   done.
GPGPU-Sim PTX: finding reconvergence points for '_Zmi6float3S_'...
GPGPU-Sim PTX: Finding dominators for '_Zmi6float3S_'...
GPGPU-Sim PTX: Finding immediate dominators for '_Zmi6float3S_'...
GPGPU-Sim PTX: Finding postdominators for '_Zmi6float3S_'...
GPGPU-Sim PTX: Finding immediate postdominators for '_Zmi6float3S_'...
GPGPU-Sim PTX: pre-decoding instructions for '_Zmi6float3S_'...
GPGPU-Sim PTX: reconvergence points for _Zmi6float3S_...
GPGPU-Sim PTX: ... end of reconvergence points for _Zmi6float3S_
GPGPU-Sim PTX: ... done pre-decoding instructions for '_Zmi6float3S_'.
GPGPU-Sim PTX: instruction assembly for function '_Z9normalize6float3'...   done.
GPGPU-Sim PTX: finding reconvergence points for '_Z9normalize6float3'...
GPGPU-Sim PTX: Finding dominators for '_Z9normalize6float3'...
GPGPU-Sim PTX: Finding immediate dominators for '_Z9normalize6float3'...
GPGPU-Sim PTX: Finding postdominators for '_Z9normalize6float3'...
GPGPU-Sim PTX: Finding immediate postdominators for '_Z9normalize6float3'...
GPGPU-Sim PTX: pre-decoding instructions for '_Z9normalize6float3'...
GPGPU-Sim PTX: reconvergence points for _Z9normalize6float3...
GPGPU-Sim PTX: ... end of reconvergence points for _Z9normalize6float3
GPGPU-Sim PTX: ... done pre-decoding instructions for '_Z9normalize6float3'.
GPGPU-Sim PTX: instruction assembly for function '_Z18intersectionSphere5Rayon6float3f'...   done.
GPGPU-Sim PTX: finding reconvergence points for '_Z18intersectionSphere5Rayon6float3f'...
GPGPU-Sim PTX: Finding dominators for '_Z18intersectionSphere5Rayon6float3f'...
GPGPU-Sim PTX: Finding immediate dominators for '_Z18intersectionSphere5Rayon6float3f'...
GPGPU-Sim PTX: Finding postdominators for '_Z18intersectionSphere5Rayon6float3f'...
GPGPU-Sim PTX: Finding immediate postdominators for '_Z18intersectionSphere5Rayon6float3f'...
GPGPU-Sim PTX: pre-decoding instructions for '_Z18intersectionSphere5Rayon6float3f'...
GPGPU-Sim PTX: reconvergence points for _Z18intersectionSphere5Rayon6float3f...
GPGPU-Sim PTX:  1 (potential) branch divergence @  PC=0x250 (_1.ptx:173) @%p2 bra $Lt_2_3074;
GPGPU-Sim PTX:    immediate post dominator      @  PC=0x2c0 (_1.ptx:193) mov.f32 %f39, %f32;
GPGPU-Sim PTX:  2 (potential) branch divergence @  PC=0x260 (_1.ptx:175) bra.uni $Lt_2_2818;
GPGPU-Sim PTX:    immediate post dominator      @  PC=0x2c0 (_1.ptx:193) mov.f32 %f39, %f32;
GPGPU-Sim PTX:  3 (potential) branch divergence @  PC=0x280 (_1.ptx:180) @!%p3 bra $Lt_2_3586;
GPGPU-Sim PTX:    immediate post dominator      @  PC=0x2c0 (_1.ptx:193) mov.f32 %f39, %f32;
GPGPU-Sim PTX:  4 (potential) branch divergence @  PC=0x290 (_1.ptx:182) bra.uni $Lt_2_3330;
GPGPU-Sim PTX:    immediate post dominator      @  PC=0x2c0 (_1.ptx:193) mov.f32 %f39, %f32;
GPGPU-Sim PTX: ... end of reconvergence points for _Z18intersectionSphere5Rayon6float3f
GPGPU-Sim PTX: ... done pre-decoding instructions for '_Z18intersectionSphere5Rayon6float3f'.
GPGPU-Sim PTX: instruction assembly for function '_Z16intersectionPlan5Rayon6float3S0_'...   done.
GPGPU-Sim PTX: finding reconvergence points for '_Z16intersectionPlan5Rayon6float3S0_'...
GPGPU-Sim PTX: Finding dominators for '_Z16intersectionPlan5Rayon6float3S0_'...
GPGPU-Sim PTX: Finding immediate dominators for '_Z16intersectionPlan5Rayon6float3S0_'...
GPGPU-Sim PTX: Finding postdominators for '_Z16intersectionPlan5Rayon6float3S0_'...
GPGPU-Sim PTX: Finding immediate postdominators for '_Z16intersectionPlan5Rayon6float3S0_'...
GPGPU-Sim PTX: pre-decoding instructions for '_Z16intersectionPlan5Rayon6float3S0_'...
GPGPU-Sim PTX: reconvergence points for _Z16intersectionPlan5Rayon6float3S0_...
GPGPU-Sim PTX:  1 (potential) branch divergence @  PC=0x320 (_1.ptx:214) @!%p1 bra $Lt_3_2050;
GPGPU-Sim PTX:    immediate post dominator      @  PC=0x368 (_1.ptx:227) mov.f32 %f14, %f9;
GPGPU-Sim PTX:  2 (potential) branch divergence @  PC=0x330 (_1.ptx:216) bra.uni $Lt_3_1794;
GPGPU-Sim PTX:    immediate post dominator      @  PC=0x368 (_1.ptx:227) mov.f32 %f14, %f9;
GPGPU-Sim PTX: ... end of reconvergence points for _Z16intersectionPlan5Rayon6float3S0_
GPGPU-Sim PTX: ... done pre-decoding instructions for '_Z16intersectionPlan5Rayon6float3S0_'.
GPGPU-Sim PTX: instruction assembly for function '_Z10getNormale6float3S_'...   done.
GPGPU-Sim PTX: finding reconvergence points for '_Z10getNormale6float3S_'...
GPGPU-Sim PTX: Finding dominators for '_Z10getNormale6float3S_'...
GPGPU-Sim PTX: Finding immediate dominators for '_Z10getNormale6float3S_'...
GPGPU-Sim PTX: Finding postdominators for '_Z10getNormale6float3S_'...
GPGPU-Sim PTX: Finding immediate postdominators for '_Z10getNormale6float3S_'...
GPGPU-Sim PTX: pre-decoding instructions for '_Z10getNormale6float3S_'...
GPGPU-Sim PTX: reconvergence points for _Z10getNormale6float3S_...
GPGPU-Sim PTX: ... end of reconvergence points for _Z10getNormale6float3S_
GPGPU-Sim PTX: ... done pre-decoding instructions for '_Z10getNormale6float3S_'.
GPGPU-Sim PTX: instruction assembly for function '_Z11getNormaleP6float3'...   done.
GPGPU-Sim PTX: finding reconvergence points for '_Z11getNormaleP6float3'...
GPGPU-Sim PTX: Finding dominators for '_Z11getNormaleP6float3'...
GPGPU-Sim PTX: Finding immediate dominators for '_Z11getNormaleP6float3'...
GPGPU-Sim PTX: Finding postdominators for '_Z11getNormaleP6float3'...
GPGPU-Sim PTX: Finding immediate postdominators for '_Z11getNormaleP6float3'...
GPGPU-Sim PTX: pre-decoding instructions for '_Z11getNormaleP6float3'...
GPGPU-Sim PTX: reconvergence points for _Z11getNormaleP6float3...
GPGPU-Sim PTX: ... end of reconvergence points for _Z11getNormaleP6float3
GPGPU-Sim PTX: ... done pre-decoding instructions for '_Z11getNormaleP6float3'.
GPGPU-Sim PTX: instruction assembly for function '_Z14rgbaFloatToInt6float4'...   done.
GPGPU-Sim PTX: finding reconvergence points for '_Z14rgbaFloatToInt6float4'...
GPGPU-Sim PTX: Finding dominators for '_Z14rgbaFloatToInt6float4'...
GPGPU-Sim PTX: Finding immediate dominators for '_Z14rgbaFloatToInt6float4'...
GPGPU-Sim PTX: Finding postdominators for '_Z14rgbaFloatToInt6float4'...
GPGPU-Sim PTX: Finding immediate postdominators for '_Z14rgbaFloatToInt6float4'...
GPGPU-Sim PTX: pre-decoding instructions for '_Z14rgbaFloatToInt6float4'...
GPGPU-Sim PTX: reconvergence points for _Z14rgbaFloatToInt6float4...
GPGPU-Sim PTX: ... end of reconvergence points for _Z14rgbaFloatToInt6float4
GPGPU-Sim PTX: ... done pre-decoding instructions for '_Z14rgbaFloatToInt6float4'.
GPGPU-Sim PTX: allocating global region for "cnode" from 0x100 to 0x1a0 (global memory space)
GPGPU-Sim PTX: instruction assembly for function '_Z12notShadowRayP4Node6float3S1_f'...   done.
GPGPU-Sim PTX: finding reconvergence points for '_Z12notShadowRayP4Node6float3S1_f'...
GPGPU-Sim PTX: Finding dominators for '_Z12notShadowRayP4Node6float3S1_f'...
GPGPU-Sim PTX: Finding immediate dominators for '_Z12notShadowRayP4Node6float3S1_f'...
GPGPU-Sim PTX: Finding postdominators for '_Z12notShadowRayP4Node6float3S1_f'...
GPGPU-Sim PTX: Finding immediate postdominators for '_Z12notShadowRayP4Node6float3S1_f'...
GPGPU-Sim PTX: pre-decoding instructions for '_Z12notShadowRayP4Node6float3S1_f'...
GPGPU-Sim PTX: reconvergence points for _Z12notShadowRayP4Node6float3S1_f...
GPGPU-Sim PTX:  1 (potential) branch divergence @  PC=0x638 (_1.ptx:364) @%p1 bra $Lt_7_8450;
GPGPU-Sim PTX:    immediate post dominator      @  PC=0x828 (_1.ptx:441) mov.f32 %f58, 0f00000000;    // 0
GPGPU-Sim PTX:  2 (potential) branch divergence @  PC=0x658 (_1.ptx:369) @!%p2 bra $Lt_7_8962;
GPGPU-Sim PTX:    immediate post dominator      @  PC=0x6b8 (_1.ptx:385) mov.f32 %f28, %f20;
GPGPU-Sim PTX:  3 (potential) branch divergence @  PC=0x668 (_1.ptx:371) bra.uni $Lt_7_8706;
GPGPU-Sim PTX:    immediate post dominator      @  PC=0x6b8 (_1.ptx:385) mov.f32 %f28, %f20;
GPGPU-Sim PTX:  4 (potential) branch divergence @  PC=0x6c0 (_1.ptx:386) bra.uni $Lt_7_8194;
GPGPU-Sim PTX:    immediate post dominator      @  PC=0x828 (_1.ptx:441) mov.f32 %f58, 0f00000000;    // 0
GPGPU-Sim PTX:  5 (potential) branch divergence @  PC=0x7b0 (_1.ptx:418) @%p5 bra $Lt_7_9474;
GPGPU-Sim PTX:    immediate post dominator      @  PC=0x820 (_1.ptx:438) mov.f32 %f28, %f51;
GPGPU-Sim PTX:  6 (potential) branch divergence @  PC=0x7c0 (_1.ptx:420) bra.uni $Lt_7_9730;
GPGPU-Sim PTX:    immediate post dominator      @  PC=0x820 (_1.ptx:438) mov.f32 %f28, %f51;
GPGPU-Sim PTX:  7 (potential) branch divergence @  PC=0x7e0 (_1.ptx:425) @!%p6 bra $Lt_7_9986;
GPGPU-Sim PTX:    immediate post dominator      @  PC=0x820 (_1.ptx:438) mov.f32 %f28, %f51;
GPGPU-Sim PTX:  8 (potential) branch divergence @  PC=0x7f0 (_1.ptx:427) bra.uni $Lt_7_9730;
GPGPU-Sim PTX:    immediate post dominator      @  PC=0x820 (_1.ptx:438) mov.f32 %f28, %f51;
GPGPU-Sim PTX:  9 (potential) branch divergence @  PC=0x838 (_1.ptx:443) @!%p7 bra $Lt_7_10242;
GPGPU-Sim PTX:    immediate post dominator      @  PC=0x8e8 (_1.ptx:468) add.s32 %r1, %r1, 1;
GPGPU-Sim PTX: 10 (potential) branch divergence @  PC=0x8d8 (_1.ptx:463) @!%p8 bra $Lt_7_10242;
GPGPU-Sim PTX:    immediate post dominator      @  PC=0x8e8 (_1.ptx:468) add.s32 %r1, %r1, 1;
GPGPU-Sim PTX: 11 (potential) branch divergence @  PC=0x908 (_1.ptx:472) @%p9 bra $Lt_7_10754;
GPGPU-Sim PTX:    immediate post dominator      @  PC=0x960 (_1.ptx:486) selp.s32 %r10, 1, 0, %p11;
GPGPU-Sim PTX: 12 (potential) branch divergence @  PC=0x930 (_1.ptx:477) @%p10 bra $L_7_7170;
GPGPU-Sim PTX:    immediate post dominator      @  PC=0x960 (_1.ptx:486) selp.s32 %r10, 1, 0, %p11;
GPGPU-Sim PTX: 13 (potential) branch divergence @  PC=0x938 (_1.ptx:478) bra.uni $L_7_7938;
GPGPU-Sim PTX:    immediate post dominator      @  PC=0x960 (_1.ptx:486) selp.s32 %r10, 1, 0, %p11;
GPGPU-Sim PTX: ... end of reconvergence points for _Z12notShadowRayP4Node6float3S1_f
GPGPU-Sim PTX: ... done pre-decoding instructions for '_Z12notShadowRayP4Node6float3S1_f'.
GPGPU-Sim PTX: instruction assembly for function '_Z15float2int_pow20f'...   done.
GPGPU-Sim PTX: finding reconvergence points for '_Z15float2int_pow20f'...
GPGPU-Sim PTX: Finding dominators for '_Z15float2int_pow20f'...
GPGPU-Sim PTX: Finding immediate dominators for '_Z15float2int_pow20f'...
GPGPU-Sim PTX: Finding postdominators for '_Z15float2int_pow20f'...
GPGPU-Sim PTX: Finding immediate postdominators for '_Z15float2int_pow20f'...
GPGPU-Sim PTX: pre-decoding instructions for '_Z15float2int_pow20f'...
GPGPU-Sim PTX: reconvergence points for _Z15float2int_pow20f...
GPGPU-Sim PTX: ... end of reconvergence points for _Z15float2int_pow20f
GPGPU-Sim PTX: ... done pre-decoding instructions for '_Z15float2int_pow20f'.
GPGPU-Sim PTX: instruction assembly for function '_Z15float2int_pow50f'...   done.
GPGPU-Sim PTX: finding reconvergence points for '_Z15float2int_pow50f'...
GPGPU-Sim PTX: Finding dominators for '_Z15float2int_pow50f'...
GPGPU-Sim PTX: Finding immediate dominators for '_Z15float2int_pow50f'...
GPGPU-Sim PTX: Finding postdominators for '_Z15float2int_pow50f'...
GPGPU-Sim PTX: Finding immediate postdominators for '_Z15float2int_pow50f'...
GPGPU-Sim PTX: pre-decoding instructions for '_Z15float2int_pow50f'...
GPGPU-Sim PTX: reconvergence points for _Z15float2int_pow50f...
GPGPU-Sim PTX: ... end of reconvergence points for _Z15float2int_pow50f
GPGPU-Sim PTX: ... done pre-decoding instructions for '_Z15float2int_pow50f'.
GPGPU-Sim PTX: allocating constant region for "MView" from 0x200 to 0x230 (global memory space) 1
GPGPU-Sim PTX: allocating stack frame region for .local "__cuda___cuda_local_var_35463_9_non_const_pile_32240" from 0x0 to 0x50
GPGPU-Sim PTX: instruction assembly for function '_Z6renderPjP4Nodejjff'...   done.
GPGPU-Sim PTX: finding reconvergence points for '_Z6renderPjP4Nodejjff'...
GPGPU-Sim PTX: Finding dominators for '_Z6renderPjP4Nodejjff'...
GPGPU-Sim PTX: Finding immediate dominators for '_Z6renderPjP4Nodejjff'...
GPGPU-Sim PTX: Finding postdominators for '_Z6renderPjP4Nodejjff'...
GPGPU-Sim PTX: Finding immediate postdominators for '_Z6renderPjP4Nodejjff'...
GPGPU-Sim PTX: pre-decoding instructions for '_Z6renderPjP4Nodejjff'...
GPGPU-Sim PTX: reconvergence points for _Z6renderPjP4Nodejjff...
GPGPU-Sim PTX:  1 (potential) branch divergence @  PC=0xdb0 (_1.ptx:663) @%p1 bra $Lt_10_44034;
GPGPU-Sim PTX:    immediate post dominator      @  PC=0x2370 (_1.ptx:1495) exit;
GPGPU-Sim PTX:  2 (potential) branch divergence @  PC=0x1028 (_1.ptx:751) @%p2 bra $Lt_10_45570;
GPGPU-Sim PTX:    immediate post dominator      @  PC=0x11b8 (_1.ptx:815) mov.f32 %f108, 0f00000000;   // 0
GPGPU-Sim PTX:  3 (potential) branch divergence @  PC=0x1048 (_1.ptx:756) @!%p3 bra $Lt_10_46082;
GPGPU-Sim PTX:    immediate post dominator      @  PC=0x1090 (_1.ptx:769) mov.f32 %f87, %f82;
GPGPU-Sim PTX:  4 (potential) branch divergence @  PC=0x1058 (_1.ptx:758) bra.uni $Lt_10_45826;
GPGPU-Sim PTX:    immediate post dominator      @  PC=0x1090 (_1.ptx:769) mov.f32 %f87, %f82;
GPGPU-Sim PTX:  5 (potential) branch divergence @  PC=0x1098 (_1.ptx:770) bra.uni $Lt_10_45314;
GPGPU-Sim PTX:    immediate post dominator      @  PC=0x11b8 (_1.ptx:815) mov.f32 %f108, 0f00000000;   // 0
GPGPU-Sim PTX:  6 (potential) branch divergence @  PC=0x1140 (_1.ptx:793) @%p6 bra $Lt_10_46594;
GPGPU-Sim PTX:    immediate post dominator      @  PC=0x11b0 (_1.ptx:813) mov.f32 %f87, %f101;
GPGPU-Sim PTX:  7 (potential) branch divergence @  PC=0x1150 (_1.ptx:795) bra.uni $Lt_10_46850;
GPGPU-Sim PTX:    immediate post dominator      @  PC=0x11b0 (_1.ptx:813) mov.f32 %f87, %f101;
GPGPU-Sim PTX:  8 (potential) branch divergence @  PC=0x1170 (_1.ptx:800) @!%p7 bra $Lt_10_47106;
GPGPU-Sim PTX:    immediate post dominator      @  PC=0x11b0 (_1.ptx:813) mov.f32 %f87, %f101;
GPGPU-Sim PTX:  9 (potential) branch divergence @  PC=0x1180 (_1.ptx:802) bra.uni $Lt_10_46850;
GPGPU-Sim PTX:    immediate post dominator      @  PC=0x11b0 (_1.ptx:813) mov.f32 %f87, %f101;
GPGPU-Sim PTX: 10 (potential) branch divergence @  PC=0x11f8 (_1.ptx:823) @%p8 bra $Lt_10_47362;
GPGPU-Sim PTX:    immediate post dominator      @  PC=0x1210 (_1.ptx:829) add.s32 %r25, %r25, 1;
GPGPU-Sim PTX: 11 (potential) branch divergence @  PC=0x1230 (_1.ptx:833) @%p9 bra $Lt_10_45058;
GPGPU-Sim PTX:    immediate post dominator      @  PC=0x1238 (_1.ptx:834) mov.f32 %f109, 0f00000000;   // 0
GPGPU-Sim PTX: 12 (potential) branch divergence @  PC=0x1280 (_1.ptx:843) @%p10 bra $Lt_10_48130;
GPGPU-Sim PTX:    immediate post dominator      @  PC=0x2140 (_1.ptx:1416) add.s32 %r23, %r23, 1;
GPGPU-Sim PTX: 13 (potential) branch divergence @  PC=0x1330 (_1.ptx:868) @%p11 bra $Lt_10_48898;
GPGPU-Sim PTX:    immediate post dominator      @  PC=0x13b8 (_1.ptx:888) sub.f32 %f136, %f21, %f119;
GPGPU-Sim PTX: 14 (potential) branch divergence @  PC=0x1350 (_1.ptx:873) bra.uni $Lt_10_48642;
GPGPU-Sim PTX:    immediate post dominator      @  PC=0x13b8 (_1.ptx:888) sub.f32 %f136, %f21, %f119;
GPGPU-Sim PTX: 15 (potential) branch divergence @  PC=0x1430 (_1.ptx:903) @!%p12 bra $Lt_10_49410;
GPGPU-Sim PTX:    immediate post dominator      @  PC=0x1470 (_1.ptx:915) mov.f32 %f153, 0f3d4ccccd;   // 0.05
GPGPU-Sim PTX: 16 (potential) branch divergence @  PC=0x1450 (_1.ptx:908) bra.uni $Lt_10_49154;
GPGPU-Sim PTX:    immediate post dominator      @  PC=0x1470 (_1.ptx:915) mov.f32 %f153, 0f3d4ccccd;   // 0.05
GPGPU-Sim PTX: 17 (potential) branch divergence @  PC=0x1578 (_1.ptx:949) @!%p13 bra $Lt_10_58114;
GPGPU-Sim PTX:    immediate post dominator      @  PC=0x2080 (_1.ptx:1388) add.f32 %f399, %f126, %f126;
GPGPU-Sim PTX: 18 (potential) branch divergence @  PC=0x15c0 (_1.ptx:961) @%p14 bra $Lt_10_49922;
GPGPU-Sim PTX:    immediate post dominator      @  PC=0x17b0 (_1.ptx:1039) mov.f32 %f221, 0f00000000;   // 0
GPGPU-Sim PTX: 19 (potential) branch divergence @  PC=0x15e0 (_1.ptx:966) @!%p15 bra $Lt_10_50434;
GPGPU-Sim PTX:    immediate post dominator      @  PC=0x1638 (_1.ptx:982) mov.f32 %f190, %f183;
GPGPU-Sim PTX: 20 (potential) branch divergence @  PC=0x15f0 (_1.ptx:968) bra.uni $Lt_10_50178;
GPGPU-Sim PTX:    immediate post dominator      @  PC=0x1638 (_1.ptx:982) mov.f32 %f190, %f183;
GPGPU-Sim PTX: 21 (potential) branch divergence @  PC=0x1640 (_1.ptx:983) bra.uni $Lt_10_49666;
GPGPU-Sim PTX:    immediate post dominator      @  PC=0x17b0 (_1.ptx:1039) mov.f32 %f221, 0f00000000;   // 0
GPGPU-Sim PTX: 22 (potential) branch divergence @  PC=0x1738 (_1.ptx:1016) @%p18 bra $Lt_10_50946;
GPGPU-Sim PTX:    immediate post dominator      @  PC=0x17a8 (_1.ptx:1036) mov.f32 %f190, %f214;
GPGPU-Sim PTX: 23 (potential) branch divergence @  PC=0x1748 (_1.ptx:1018) bra.uni $Lt_10_51202;
GPGPU-Sim PTX:    immediate post dominator      @  PC=0x17a8 (_1.ptx:1036) mov.f32 %f190, %f214;
GPGPU-Sim PTX: 24 (potential) branch divergence @  PC=0x1768 (_1.ptx:1023) @!%p19 bra $Lt_10_51458;
GPGPU-Sim PTX:    immediate post dominator      @  PC=0x17a8 (_1.ptx:1036) mov.f32 %f190, %f214;
GPGPU-Sim PTX: 25 (potential) branch divergence @  PC=0x1778 (_1.ptx:1025) bra.uni $Lt_10_51202;
GPGPU-Sim PTX:    immediate post dominator      @  PC=0x17a8 (_1.ptx:1036) mov.f32 %f190, %f214;
GPGPU-Sim PTX: 26 (potential) branch divergence @  PC=0x17c0 (_1.ptx:1041) @!%p20 bra $Lt_10_58370;
GPGPU-Sim PTX:    immediate post dominator      @  PC=0x1828 (_1.ptx:1057) add.s32 %r50, %r50, 1;
GPGPU-Sim PTX: 27 (potential) branch divergence @  PC=0x1818 (_1.ptx:1052) @!%p21 bra $Lt_10_58370;
GPGPU-Sim PTX:    immediate post dominator      @  PC=0x1828 (_1.ptx:1057) add.s32 %r50, %r50, 1;
GPGPU-Sim PTX: 28 (potential) branch divergence @  PC=0x1848 (_1.ptx:1061) @%p22 bra $Lt_10_58882;
GPGPU-Sim PTX:    immediate post dominator      @  PC=0x1880 (_1.ptx:1071) @!%p23 bra $Lt_10_58114;
GPGPU-Sim PTX: 29 (potential) branch divergence @  PC=0x1860 (_1.ptx:1064) @%p23 bra $L_10_42498;
GPGPU-Sim PTX:    immediate post dominator      @  PC=0x1880 (_1.ptx:1071) @!%p23 bra $Lt_10_58114;
GPGPU-Sim PTX: 30 (potential) branch divergence @  PC=0x1868 (_1.ptx:1065) bra.uni $L_10_43266;
GPGPU-Sim PTX:    immediate post dominator      @  PC=0x1880 (_1.ptx:1071) @!%p23 bra $Lt_10_58114;
GPGPU-Sim PTX: 31 (potential) branch divergence @  PC=0x1880 (_1.ptx:1071) @!%p23 bra $Lt_10_58114;
GPGPU-Sim PTX:    immediate post dominator      @  PC=0x2080 (_1.ptx:1388) add.f32 %f399, %f126, %f126;
GPGPU-Sim PTX: 32 (potential) branch divergence @  PC=0x19c8 (_1.ptx:1115) @!%p24 bra $Lt_10_51714;
GPGPU-Sim PTX:    immediate post dominator      @  PC=0x2040 (_1.ptx:1375) mov.f32 %f394, 0f3f4ccccd;   // 0.8
GPGPU-Sim PTX: 33 (potential) branch divergence @  PC=0x19d8 (_1.ptx:1118) bra.uni $LDWendi___isnanf_192_1;
GPGPU-Sim PTX:    immediate post dominator      @  PC=0x2040 (_1.ptx:1375) mov.f32 %f394, 0f3f4ccccd;   // 0.8
GPGPU-Sim PTX: 34 (potential) branch divergence @  PC=0x19f8 (_1.ptx:1124) @!%p25 bra $Lt_10_7682;
GPGPU-Sim PTX:    immediate post dominator      @  PC=0x2040 (_1.ptx:1375) mov.f32 %f394, 0f3f4ccccd;   // 0.8
GPGPU-Sim PTX: 35 (potential) branch divergence @  PC=0x1a00 (_1.ptx:1125) bra.uni $Lt_10_7938;
GPGPU-Sim PTX:    immediate post dominator      @  PC=0x1a20 (_1.ptx:1133) mov.f32 %f272, 0f7f800000;   // ((1.0F)/(0.0F))
GPGPU-Sim PTX: 36 (potential) branch divergence @  PC=0x1a18 (_1.ptx:1130) bra.uni $LDWendi___isnanf_192_1;
GPGPU-Sim PTX:    immediate post dominator      @  PC=0x2040 (_1.ptx:1375) mov.f32 %f394, 0f3f4ccccd;   // 0.8
GPGPU-Sim PTX: 37 (potential) branch divergence @  PC=0x1a30 (_1.ptx:1135) @!%p26 bra $Lt_10_52226;
GPGPU-Sim PTX:    immediate post dominator      @  PC=0x2040 (_1.ptx:1375) mov.f32 %f394, 0f3f4ccccd;   // 0.8
GPGPU-Sim PTX: 38 (potential) branch divergence @  PC=0x1a40 (_1.ptx:1138) bra.uni $LDWendi___isnanf_192_1;
GPGPU-Sim PTX:    immediate post dominator      @  PC=0x2040 (_1.ptx:1375) mov.f32 %f394, 0f3f4ccccd;   // 0.8
GPGPU-Sim PTX: 39 (potential) branch divergence @  PC=0x1a58 (_1.ptx:1142) @!%p27 bra $Lt_10_52738;
GPGPU-Sim PTX:    immediate post dominator      @  PC=0x2040 (_1.ptx:1375) mov.f32 %f394, 0f3f4ccccd;   // 0.8
GPGPU-Sim PTX: 40 (potential) branch divergence @  PC=0x1ab8 (_1.ptx:1155) bra.uni $LDWendi___isnanf_192_1;
GPGPU-Sim PTX:    immediate post dominator      @  PC=0x2040 (_1.ptx:1375) mov.f32 %f394, 0f3f4ccccd;   // 0.8
GPGPU-Sim PTX: 41 (potential) branch divergence @  PC=0x1ad0 (_1.ptx:1159) @!%p29 bra $Lt_10_53250;
GPGPU-Sim PTX:    immediate post dominator      @  PC=0x2040 (_1.ptx:1375) mov.f32 %f394, 0f3f4ccccd;   // 0.8
GPGPU-Sim PTX: 42 (potential) branch divergence @  PC=0x1b20 (_1.ptx:1170) @!%p30 bra $Lt_10_53762;
GPGPU-Sim PTX:    immediate post dominator      @  PC=0x1b40 (_1.ptx:1177) mov.f32 %f268, %f284;
GPGPU-Sim PTX: 43 (potential) branch divergence @  PC=0x1b48 (_1.ptx:1178) bra.uni $LDWendi___isnanf_192_1;
GPGPU-Sim PTX:    immediate post dominator      @  PC=0x2040 (_1.ptx:1375) mov.f32 %f394, 0f3f4ccccd;   // 0.8
GPGPU-Sim PTX: 44 (potential) branch divergence @  PC=0x1b60 (_1.ptx:1183) @!%p31 bra $Lt_10_59394;
GPGPU-Sim PTX:    immediate post dominator      @  PC=0x2040 (_1.ptx:1375) mov.f32 %f394, 0f3f4ccccd;   // 0.8
GPGPU-Sim PTX: 45 (potential) branch divergence @  PC=0x1b88 (_1.ptx:1188) @!%p32 bra $Lt_10_59394;
GPGPU-Sim PTX:    immediate post dominator      @  PC=0x2040 (_1.ptx:1375) mov.f32 %f394, 0f3f4ccccd;   // 0.8
GPGPU-Sim PTX: 46 (potential) branch divergence @  PC=0x1ba0 (_1.ptx:1192) bra.uni $LDWendi___isnanf_192_1;
GPGPU-Sim PTX:    immediate post dominator      @  PC=0x2040 (_1.ptx:1375) mov.f32 %f394, 0f3f4ccccd;   // 0.8
GPGPU-Sim PTX: 47 (potential) branch divergence @  PC=0x1bd8 (_1.ptx:1202) @%p33 bra $Lt_10_54530;
GPGPU-Sim PTX:    immediate post dominator      @  PC=0x1c20 (_1.ptx:1216) sub.s32 %r64, %r64, 127;
GPGPU-Sim PTX: 48 (potential) branch divergence @  PC=0x1c10 (_1.ptx:1211) bra.uni $Lt_10_54274;
GPGPU-Sim PTX:    immediate post dominator      @  PC=0x1c20 (_1.ptx:1216) sub.s32 %r64, %r64, 127;
GPGPU-Sim PTX: 49 (potential) branch divergence @  PC=0x1c58 (_1.ptx:1224) @!%p34 bra $Lt_10_54786;
GPGPU-Sim PTX:    immediate post dominator      @  PC=0x1c78 (_1.ptx:1232) mov.f32 %f302, 0fbf800000;   // -1
GPGPU-Sim PTX: 50 (potential) branch divergence @  PC=0x1eb0 (_1.ptx:1312) @%p35 bra $Lt_10_55298;
GPGPU-Sim PTX:    immediate post dominator      @  PC=0x1ed8 (_1.ptx:1321) mov.f32 %f367, %f365;
GPGPU-Sim PTX: 51 (potential) branch divergence @  PC=0x1f98 (_1.ptx:1346) @!%p38 bra $Lt_10_55810;
GPGPU-Sim PTX:    immediate post dominator      @  PC=0x1fa8 (_1.ptx:1351) mov.f32 %f284, %f386;
GPGPU-Sim PTX: 52 (potential) branch divergence @  PC=0x2018 (_1.ptx:1365) @%p39 bra $Lt_10_56322;
GPGPU-Sim PTX:    immediate post dominator      @  PC=0x2038 (_1.ptx:1372) mov.f32 %f268, %f284;
GPGPU-Sim PTX: 53 (potential) branch divergence @  PC=0x2158 (_1.ptx:1419) @%p40 bra $L_10_42242;
GPGPU-Sim PTX:    immediate post dominator      @  PC=0x2170 (_1.ptx:1424) sub.s32 %r86, %r24, 1;
GPGPU-Sim PTX: 54 (potential) branch divergence @  PC=0x2168 (_1.ptx:1421) @%p41 bra $L_10_41474;
GPGPU-Sim PTX:    immediate post dominator      @  PC=0x2170 (_1.ptx:1424) sub.s32 %r86, %r24, 1;
GPGPU-Sim PTX: 55 (potential) branch divergence @  PC=0x2190 (_1.ptx:1428) @%p42 bra $Lt_10_56834;
GPGPU-Sim PTX:    immediate post dominator      @  PC=0x2288 (_1.ptx:1464) ld.global.u32 %r92, [%rd4+0];
GPGPU-Sim PTX: 56 (potential) branch divergence @  PC=0x2280 (_1.ptx:1461) @%p43 bra $Lt_10_57346;
GPGPU-Sim PTX:    immediate post dominator      @  PC=0x2288 (_1.ptx:1464) ld.global.u32 %r92, [%rd4+0];
GPGPU-Sim PTX: ... end of reconvergence points for _Z6renderPjP4Nodejjff
GPGPU-Sim PTX: ... done pre-decoding instructions for '_Z6renderPjP4Nodejjff'.
GPGPU-Sim PTX: instruction assembly for function '_ZN4dim3C1Ejjj'...   done.
GPGPU-Sim PTX: finding reconvergence points for '_ZN4dim3C1Ejjj'...
GPGPU-Sim PTX: Finding dominators for '_ZN4dim3C1Ejjj'...
GPGPU-Sim PTX: Finding immediate dominators for '_ZN4dim3C1Ejjj'...
GPGPU-Sim PTX: Finding postdominators for '_ZN4dim3C1Ejjj'...
GPGPU-Sim PTX: Finding immediate postdominators for '_ZN4dim3C1Ejjj'...
GPGPU-Sim PTX: pre-decoding instructions for '_ZN4dim3C1Ejjj'...
GPGPU-Sim PTX: reconvergence points for _ZN4dim3C1Ejjj...
GPGPU-Sim PTX: ... end of reconvergence points for _ZN4dim3C1Ejjj
GPGPU-Sim PTX: ... done pre-decoding instructions for '_ZN4dim3C1Ejjj'.
GPGPU-Sim PTX: finished parsing EMBEDDED .ptx file _1.ptx
Adding _cuobjdump_1.ptx with cubin handle 1
GPGPU-Sim PTX: extracting embedded .ptx to temporary file "_ptx_n460zi"
Running: cat _ptx_n460zi | sed 's/.version 1.5/.version 1.4/' | sed 's/, texmode_independent//' | sed 's/\(\.extern \.const\[1\] .b8 \w\+\)\[\]/\1\[1\]/' | sed 's/const\[.\]/const\[0\]/g' > _ptx2_EDNc5f
GPGPU-Sim PTX: generating ptxinfo using "$CUDA_INSTALL_PATH/bin/ptxas --gpu-name=sm_20 -v _ptx2_EDNc5f --output-file  /dev/null 2> _ptx_n460ziinfo"
GPGPU-Sim PTX: Kernel '_Z6renderPjP4Nodejjff' : regs=45, lmem=4, smem=0, cmem=180
GPGPU-Sim PTX: removing ptxinfo using "rm -f _ptx_n460zi _ptx2_EDNc5f _ptx_n460ziinfo"
GPGPU-Sim PTX: loading globals with explicit initializers... 
GPGPU-Sim PTX: finished loading globals (0 bytes total).
GPGPU-Sim PTX: loading constants with explicit initializers...  done.
GPGPU-Sim PTX: __cudaRegisterVar: hostVar = 0x62fda0; deviceAddress = MView; deviceName = MView
GPGPU-Sim PTX: __cudaRegisterVar: Registering const memory space of 48 bytes
GPGPU-Sim PTX registering constant MView (48 bytes) to name mapping
GPGPU-Sim PTX: __cudaRegisterVar: hostVar = 0x62fde0; deviceAddress = cnode; deviceName = cnode
GPGPU-Sim PTX: __cudaRegisterVar: Registering const memory space of 160 bytes
GPGPU-Sim PTX registering constant cnode (160 bytes) to name mapping
GPGPU-Sim PTX: cudaMemcpyToSymbol: symbol = 0x62fde0
GPGPU-Sim PTX: starting gpgpu_ptx_sim_memcpy_symbol with hostVar 0x0x62fde0
GPGPU-Sim PTX: gpgpu_ptx_sim_memcpy_symbol: Found PTX symbol w/ hostVar=0x62fde0
GPGPU-Sim PTX: gpgpu_ptx_sim_memcpy_symbol: copying const memory 160 bytes  to  symbol cnode+0 @0x100 ...
GPGPU-Sim PTX: cudaMemcpyToSymbol: symbol = 0x62fda0
GPGPU-Sim PTX: starting gpgpu_ptx_sim_memcpy_symbol with hostVar 0x0x62fda0
GPGPU-Sim PTX: gpgpu_ptx_sim_memcpy_symbol: Found PTX symbol w/ hostVar=0x62fda0
GPGPU-Sim PTX: gpgpu_ptx_sim_memcpy_symbol: copying const memory 48 bytes  to  symbol MView+0 @0x200 ...

GPGPU-Sim PTX: cudaLaunch for 0x0x40ce13 (mode=performance simulation) on stream 0
GPGPU-Sim PTX: pushing kernel '_Z6renderPjP4Nodejjff' to stream 0, gridDim= (16,32,1) blockDim = (16,8,1) 
kernel '_Z6renderPjP4Nodejjff' transfer to GPU hardware scheduler
GPGPU-Sim uArch: Shader 1 bind to kernel 1 '_Z6renderPjP4Nodejjff'
GPGPU-Sim uArch: CTA/core = 5, limited by: regs
GPGPU-Sim uArch: core:  1, cta: 0 initialized @(1,0)
GPGPU-Sim uArch: Shader 2 bind to kernel 1 '_Z6renderPjP4Nodejjff'
GPGPU-Sim uArch: core:  2, cta: 0 initialized @(1,0)
GPGPU-Sim uArch: Shader 3 bind to kernel 1 '_Z6renderPjP4Nodejjff'
GPGPU-Sim uArch: core:  3, cta: 0 initialized @(1,0)
GPGPU-Sim uArch: Shader 4 bind to kernel 1 '_Z6renderPjP4Nodejjff'
GPGPU-Sim uArch: core:  4, cta: 0 initialized @(1,0)
GPGPU-Sim uArch: Shader 5 bind to kernel 1 '_Z6renderPjP4Nodejjff'
GPGPU-Sim uArch: core:  5, cta: 0 initialized @(1,0)
GPGPU-Sim uArch: Shader 6 bind to kernel 1 '_Z6renderPjP4Nodejjff'
GPGPU-Sim uArch: core:  6, cta: 0 initialized @(1,0)
GPGPU-Sim uArch: Shader 7 bind to kernel 1 '_Z6renderPjP4Nodejjff'
GPGPU-Sim uArch: core:  7, cta: 0 initialized @(1,0)
GPGPU-Sim uArch: Shader 8 bind to kernel 1 '_Z6renderPjP4Nodejjff'
GPGPU-Sim uArch: core:  8, cta: 0 initialized @(1,0)
GPGPU-Sim uArch: Shader 9 bind to kernel 1 '_Z6renderPjP4Nodejjff'
GPGPU-Sim uArch: core:  9, cta: 0 initialized @(1,0)
GPGPU-Sim uArch: Shader 10 bind to kernel 1 '_Z6renderPjP4Nodejjff'
GPGPU-Sim uArch: core: 10, cta: 0 initialized @(1,0)
GPGPU-Sim uArch: Shader 11 bind to kernel 1 '_Z6renderPjP4Nodejjff'
GPGPU-Sim uArch: core: 11, cta: 0 initialized @(1,0)
GPGPU-Sim uArch: Shader 12 bind to kernel 1 '_Z6renderPjP4Nodejjff'
GPGPU-Sim uArch: core: 12, cta: 0 initialized @(1,0)
GPGPU-Sim uArch: Shader 13 bind to kernel 1 '_Z6renderPjP4Nodejjff'
GPGPU-Sim uArch: core: 13, cta: 0 initialized @(1,0)
GPGPU-Sim uArch: Shader 14 bind to kernel 1 '_Z6renderPjP4Nodejjff'
GPGPU-Sim uArch: core: 14, cta: 0 initialized @(1,0)
GPGPU-Sim uArch: Shader 0 bind to kernel 1 '_Z6renderPjP4Nodejjff'
GPGPU-Sim uArch: core:  0, cta: 0 initialized @(1,0)
GPGPU-Sim uArch: core:  1, cta: 1 initialized @(2,0)
GPGPU-Sim uArch: core:  2, cta: 1 initialized @(2,0)
GPGPU-Sim uArch: core:  3, cta: 1 initialized @(2,0)
GPGPU-Sim uArch: core:  4, cta: 1 initialized @(2,0)
GPGPU-Sim uArch: core:  5, cta: 1 initialized @(2,0)
GPGPU-Sim uArch: core:  6, cta: 1 initialized @(2,0)
GPGPU-Sim uArch: core:  7, cta: 1 initialized @(2,0)
GPGPU-Sim uArch: core:  8, cta: 1 initialized @(2,0)
GPGPU-Sim uArch: core:  9, cta: 1 initialized @(2,0)
GPGPU-Sim uArch: core: 10, cta: 1 initialized @(2,0)
GPGPU-Sim uArch: core: 11, cta: 1 initialized @(2,0)
GPGPU-Sim uArch: core: 12, cta: 1 initialized @(2,0)
GPGPU-Sim uArch: core: 13, cta: 1 initialized @(2,0)
GPGPU-Sim uArch: core: 14, cta: 1 initialized @(2,0)
GPGPU-Sim uArch: core:  0, cta: 1 initialized @(2,0)
GPGPU-Sim uArch: core:  1, cta: 2 initialized @(3,0)
GPGPU-Sim uArch: core:  2, cta: 2 initialized @(3,0)
GPGPU-Sim uArch: core:  3, cta: 2 initialized @(3,0)
GPGPU-Sim uArch: core:  4, cta: 2 initialized @(3,0)
GPGPU-Sim uArch: core:  5, cta: 2 initialized @(3,0)
GPGPU-Sim uArch: core:  6, cta: 2 initialized @(3,0)
GPGPU-Sim uArch: core:  7, cta: 2 initialized @(3,0)
GPGPU-Sim uArch: core:  8, cta: 2 initialized @(3,0)
GPGPU-Sim uArch: core:  9, cta: 2 initialized @(3,0)
GPGPU-Sim uArch: core: 10, cta: 2 initialized @(3,0)
GPGPU-Sim uArch: core: 11, cta: 2 initialized @(3,0)
GPGPU-Sim uArch: core: 12, cta: 2 initialized @(3,0)
GPGPU-Sim uArch: core: 13, cta: 2 initialized @(3,0)
GPGPU-Sim uArch: core: 14, cta: 2 initialized @(3,0)
GPGPU-Sim uArch: core:  0, cta: 2 initialized @(3,0)
GPGPU-Sim uArch: core:  1, cta: 3 initialized @(4,0)
GPGPU-Sim uArch: core:  2, cta: 3 initialized @(4,0)
GPGPU-Sim uArch: core:  3, cta: 3 initialized @(4,0)
GPGPU-Sim uArch: core:  4, cta: 3 initialized @(4,0)
GPGPU-Sim uArch: core:  5, cta: 3 initialized @(4,0)
GPGPU-Sim uArch: core:  6, cta: 3 initialized @(4,0)
GPGPU-Sim uArch: core:  7, cta: 3 initialized @(4,0)
GPGPU-Sim uArch: core:  8, cta: 3 initialized @(4,0)
GPGPU-Sim uArch: core:  9, cta: 3 initialized @(4,0)
GPGPU-Sim uArch: core: 10, cta: 3 initialized @(4,0)
GPGPU-Sim uArch: core: 11, cta: 3 initialized @(4,0)
GPGPU-Sim uArch: core: 12, cta: 3 initialized @(4,0)
GPGPU-Sim uArch: core: 13, cta: 3 initialized @(4,0)
GPGPU-Sim uArch: core: 14, cta: 3 initialized @(4,0)
GPGPU-Sim uArch: core:  0, cta: 3 initialized @(4,0)
GPGPU-Sim uArch: core:  1, cta: 4 initialized @(5,0)
GPGPU-Sim uArch: core:  2, cta: 4 initialized @(5,0)
GPGPU-Sim uArch: core:  3, cta: 4 initialized @(5,0)
GPGPU-Sim uArch: core:  4, cta: 4 initialized @(5,0)
GPGPU-Sim uArch: core:  5, cta: 4 initialized @(5,0)
GPGPU-Sim uArch: core:  6, cta: 4 initialized @(5,0)
GPGPU-Sim uArch: core:  7, cta: 4 initialized @(5,0)
GPGPU-Sim uArch: core:  8, cta: 4 initialized @(5,0)
GPGPU-Sim uArch: core:  9, cta: 4 initialized @(5,0)
GPGPU-Sim uArch: core: 10, cta: 4 initialized @(5,0)
GPGPU-Sim uArch: core: 11, cta: 4 initialized @(5,0)
GPGPU-Sim uArch: core: 12, cta: 4 initialized @(5,0)
GPGPU-Sim uArch: core: 13, cta: 4 initialized @(5,0)
GPGPU-Sim uArch: core: 14, cta: 4 initialized @(5,0)
GPGPU-Sim uArch: core:  0, cta: 4 initialized @(5,0)
GPGPU-Sim uArch: cycles simulated: 500  inst.: 36032 (ipc=72.1) sim_rate=12010 (inst/sec) elapsed = 0:0:00:03 / Sun Feb 28 21:31:34 2016
GPGPU-Sim PTX: 100000 instructions simulated : ctaid=(9,0,0) tid=(15,1,0)
GPGPU-Sim uArch: cycles simulated: 3000  inst.: 140608 (ipc=46.9) sim_rate=35152 (inst/sec) elapsed = 0:0:00:04 / Sun Feb 28 21:31:35 2016
GPGPU-Sim PTX: 200000 instructions simulated : ctaid=(2,0,0) tid=(15,5,0)
GPGPU-Sim PTX: 300000 instructions simulated : ctaid=(7,0,0) tid=(15,5,0)
GPGPU-Sim uArch: cycles simulated: 5000  inst.: 323424 (ipc=64.7) sim_rate=64684 (inst/sec) elapsed = 0:0:00:05 / Sun Feb 28 21:31:36 2016
GPGPU-Sim PTX: 400000 instructions simulated : ctaid=(4,0,0) tid=(15,1,0)
GPGPU-Sim PTX: 500000 instructions simulated : ctaid=(0,3,0) tid=(15,5,0)
GPGPU-Sim PTX: 600000 instructions simulated : ctaid=(1,1,0) tid=(15,5,0)
GPGPU-Sim PTX: 700000 instructions simulated : ctaid=(0,0,0) tid=(15,7,0)
GPGPU-Sim uArch: cycles simulated: 7000  inst.: 701216 (ipc=100.2) sim_rate=116869 (inst/sec) elapsed = 0:0:00:06 / Sun Feb 28 21:31:37 2016
GPGPU-Sim PTX: 800000 instructions simulated : ctaid=(2,3,0) tid=(15,7,0)
GPGPU-Sim PTX: 900000 instructions simulated : ctaid=(3,2,0) tid=(15,7,0)
GPGPU-Sim PTX: 1000000 instructions simulated : ctaid=(0,4,0) tid=(15,3,0)
GPGPU-Sim PTX: 1100000 instructions simulated : ctaid=(2,4,0) tid=(15,3,0)
GPGPU-Sim uArch: cycles simulated: 8500  inst.: 1127840 (ipc=132.7) sim_rate=161120 (inst/sec) elapsed = 0:0:00:07 / Sun Feb 28 21:31:38 2016
GPGPU-Sim PTX: 1200000 instructions simulated : ctaid=(12,3,0) tid=(15,5,0)
GPGPU-Sim PTX: 1300000 instructions simulated : ctaid=(4,1,0) tid=(15,1,0)
GPGPU-Sim PTX: 1400000 instructions simulated : ctaid=(3,2,0) tid=(15,7,0)
GPGPU-Sim PTX: 1500000 instructions simulated : ctaid=(11,2,0) tid=(15,3,0)
GPGPU-Sim uArch: cycles simulated: 9500  inst.: 1552352 (ipc=163.4) sim_rate=194044 (inst/sec) elapsed = 0:0:00:08 / Sun Feb 28 21:31:39 2016
GPGPU-Sim PTX: 1600000 instructions simulated : ctaid=(10,1,0) tid=(15,7,0)
GPGPU-Sim PTX: 1700000 instructions simulated : ctaid=(6,2,0) tid=(15,5,0)
GPGPU-Sim PTX: 1800000 instructions simulated : ctaid=(0,0,0) tid=(15,7,0)
GPGPU-Sim PTX: 1900000 instructions simulated : ctaid=(7,0,0) tid=(15,5,0)
GPGPU-Sim PTX: 2000000 instructions simulated : ctaid=(6,2,0) tid=(15,1,0)
GPGPU-Sim PTX: 2100000 instructions simulated : ctaid=(15,1,0) tid=(15,7,0)
GPGPU-Sim PTX: 2200000 instructions simulated : ctaid=(11,1,0) tid=(15,5,0)
GPGPU-Sim PTX: 2300000 instructions simulated : ctaid=(12,1,0) tid=(15,1,0)
GPGPU-Sim uArch: cycles simulated: 10500  inst.: 2282176 (ipc=217.4) sim_rate=253575 (inst/sec) elapsed = 0:0:00:09 / Sun Feb 28 21:31:40 2016
GPGPU-Sim PTX: 2400000 instructions simulated : ctaid=(8,2,0) tid=(15,5,0)
GPGPU-Sim PTX: 2500000 instructions simulated : ctaid=(15,1,0) tid=(15,5,0)
GPGPU-Sim PTX: 2600000 instructions simulated : ctaid=(11,2,0) tid=(15,1,0)
GPGPU-Sim PTX: 2700000 instructions simulated : ctaid=(9,2,0) tid=(15,3,0)
GPGPU-Sim PTX: 2800000 instructions simulated : ctaid=(10,3,0) tid=(15,1,0)
GPGPU-Sim PTX: 2900000 instructions simulated : ctaid=(15,1,0) tid=(15,3,0)
GPGPU-Sim PTX: 3000000 instructions simulated : ctaid=(1,4,0) tid=(15,5,0)
GPGPU-Sim uArch: cycles simulated: 11500  inst.: 3000032 (ipc=260.9) sim_rate=300003 (inst/sec) elapsed = 0:0:00:10 / Sun Feb 28 21:31:41 2016
GPGPU-Sim PTX: 3100000 instructions simulated : ctaid=(14,1,0) tid=(15,5,0)
GPGPU-Sim PTX: 3200000 instructions simulated : ctaid=(10,3,0) tid=(15,7,0)
GPGPU-Sim PTX: 3300000 instructions simulated : ctaid=(5,3,0) tid=(15,3,0)
GPGPU-Sim PTX: 3400000 instructions simulated : ctaid=(7,4,0) tid=(15,5,0)
GPGPU-Sim PTX: 3500000 instructions simulated : ctaid=(10,2,0) tid=(15,3,0)
GPGPU-Sim uArch: cycles simulated: 12500  inst.: 3461312 (ipc=276.9) sim_rate=314664 (inst/sec) elapsed = 0:0:00:11 / Sun Feb 28 21:31:42 2016
GPGPU-Sim PTX: 3600000 instructions simulated : ctaid=(3,0,0) tid=(15,3,0)
GPGPU-Sim PTX: 3700000 instructions simulated : ctaid=(9,0,0) tid=(15,5,0)
GPGPU-Sim PTX: 3800000 instructions simulated : ctaid=(12,2,0) tid=(15,5,0)
GPGPU-Sim PTX: 3900000 instructions simulated : ctaid=(1,3,0) tid=(15,1,0)
GPGPU-Sim uArch: cycles simulated: 13500  inst.: 3826752 (ipc=283.5) sim_rate=318896 (inst/sec) elapsed = 0:0:00:12 / Sun Feb 28 21:31:43 2016
GPGPU-Sim PTX: 4000000 instructions simulated : ctaid=(0,2,0) tid=(15,1,0)
GPGPU-Sim PTX: 4100000 instructions simulated : ctaid=(15,1,0) tid=(15,3,0)
GPGPU-Sim PTX: 4200000 instructions simulated : ctaid=(11,1,0) tid=(15,3,0)
GPGPU-Sim PTX: 4300000 instructions simulated : ctaid=(14,1,0) tid=(15,1,0)
GPGPU-Sim PTX: 4400000 instructions simulated : ctaid=(0,2,0) tid=(15,5,0)
GPGPU-Sim uArch: cycles simulated: 15000  inst.: 4309920 (ipc=287.3) sim_rate=331532 (inst/sec) elapsed = 0:0:00:13 / Sun Feb 28 21:31:44 2016
GPGPU-Sim PTX: 4500000 instructions simulated : ctaid=(15,3,0) tid=(15,3,0)
GPGPU-Sim PTX: 4600000 instructions simulated : ctaid=(13,0,0) tid=(8,0,0)
GPGPU-Sim PTX: 4700000 instructions simulated : ctaid=(15,1,0) tid=(13,1,0)
GPGPU-Sim PTX: 4800000 instructions simulated : ctaid=(14,0,0) tid=(15,4,0)
GPGPU-Sim PTX: 4900000 instructions simulated : ctaid=(0,4,0) tid=(15,4,0)
GPGPU-Sim PTX: 5000000 instructions simulated : ctaid=(15,2,0) tid=(15,2,0)
GPGPU-Sim uArch: cycles simulated: 16000  inst.: 4916240 (ipc=307.3) sim_rate=351160 (inst/sec) elapsed = 0:0:00:14 / Sun Feb 28 21:31:45 2016
GPGPU-Sim PTX: 5100000 instructions simulated : ctaid=(13,0,0) tid=(15,0,0)
GPGPU-Sim PTX: 5200000 instructions simulated : ctaid=(10,1,0) tid=(15,2,0)
GPGPU-Sim PTX: 5300000 instructions simulated : ctaid=(11,2,0) tid=(15,4,0)
GPGPU-Sim PTX: 5400000 instructions simulated : ctaid=(10,1,0) tid=(15,6,0)
GPGPU-Sim PTX: 5500000 instructions simulated : ctaid=(1,0,0) tid=(12,5,0)
GPGPU-Sim PTX: 5600000 instructions simulated : ctaid=(11,0,0) tid=(1,7,0)
GPGPU-Sim PTX: 5700000 instructions simulated : ctaid=(10,4,0) tid=(1,4,0)
GPGPU-Sim PTX: 5800000 instructions simulated : ctaid=(6,3,0) tid=(15,6,0)
GPGPU-Sim uArch: cycles simulated: 17000  inst.: 5666337 (ipc=333.3) sim_rate=377755 (inst/sec) elapsed = 0:0:00:15 / Sun Feb 28 21:31:46 2016
GPGPU-Sim PTX: 5900000 instructions simulated : ctaid=(9,0,0) tid=(12,0,0)
GPGPU-Sim PTX: 6000000 instructions simulated : ctaid=(1,4,0) tid=(15,2,0)
GPGPU-Sim PTX: 6100000 instructions simulated : ctaid=(11,0,0) tid=(11,7,0)
GPGPU-Sim PTX: 6200000 instructions simulated : ctaid=(8,3,0) tid=(11,7,0)
GPGPU-Sim uArch: cycles simulated: 18000  inst.: 6088580 (ipc=338.3) sim_rate=380536 (inst/sec) elapsed = 0:0:00:16 / Sun Feb 28 21:31:47 2016
GPGPU-Sim PTX: 6300000 instructions simulated : ctaid=(1,2,0) tid=(11,5,0)
GPGPU-Sim PTX: 6400000 instructions simulated : ctaid=(11,2,0) tid=(11,1,0)
GPGPU-Sim PTX: 6500000 instructions simulated : ctaid=(13,3,0) tid=(11,6,0)
GPGPU-Sim PTX: 6600000 instructions simulated : ctaid=(2,3,0) tid=(11,1,0)
GPGPU-Sim PTX: 6700000 instructions simulated : ctaid=(10,1,0) tid=(11,5,0)
GPGPU-Sim PTX: 6800000 instructions simulated : ctaid=(1,3,0) tid=(11,7,0)
GPGPU-Sim PTX: 6900000 instructions simulated : ctaid=(15,0,0) tid=(11,7,0)
GPGPU-Sim uArch: cycles simulated: 20500  inst.: 6722212 (ipc=327.9) sim_rate=395424 (inst/sec) elapsed = 0:0:00:17 / Sun Feb 28 21:31:48 2016
GPGPU-Sim PTX: 7000000 instructions simulated : ctaid=(9,1,0) tid=(11,1,0)
GPGPU-Sim PTX: 7100000 instructions simulated : ctaid=(11,3,0) tid=(11,1,0)
GPGPU-Sim uArch: cycles simulated: 21000  inst.: 6944644 (ipc=330.7) sim_rate=385813 (inst/sec) elapsed = 0:0:00:18 / Sun Feb 28 21:31:49 2016
GPGPU-Sim PTX: 7200000 instructions simulated : ctaid=(8,3,0) tid=(11,3,0)
GPGPU-Sim PTX: 7300000 instructions simulated : ctaid=(5,3,0) tid=(11,5,0)
GPGPU-Sim PTX: 7400000 instructions simulated : ctaid=(15,1,0) tid=(11,7,0)
GPGPU-Sim PTX: 7500000 instructions simulated : ctaid=(12,2,0) tid=(11,7,0)
GPGPU-Sim PTX: 7600000 instructions simulated : ctaid=(10,0,0) tid=(11,3,0)
GPGPU-Sim uArch: cycles simulated: 22500  inst.: 7411236 (ipc=329.4) sim_rate=390065 (inst/sec) elapsed = 0:0:00:19 / Sun Feb 28 21:31:50 2016
GPGPU-Sim PTX: 7700000 instructions simulated : ctaid=(3,0,0) tid=(11,7,0)
GPGPU-Sim PTX: 7800000 instructions simulated : ctaid=(12,0,0) tid=(11,7,0)
GPGPU-Sim PTX: 7900000 instructions simulated : ctaid=(12,2,0) tid=(11,3,0)
GPGPU-Sim PTX: 8000000 instructions simulated : ctaid=(7,3,0) tid=(11,1,0)
GPGPU-Sim PTX: 8100000 instructions simulated : ctaid=(8,3,0) tid=(11,3,0)
GPGPU-Sim uArch: cycles simulated: 24000  inst.: 7959652 (ipc=331.7) sim_rate=397982 (inst/sec) elapsed = 0:0:00:20 / Sun Feb 28 21:31:51 2016
GPGPU-Sim PTX: 8200000 instructions simulated : ctaid=(10,4,0) tid=(11,1,0)
GPGPU-Sim PTX: 8300000 instructions simulated : ctaid=(2,1,0) tid=(11,5,0)
GPGPU-Sim PTX: 8400000 instructions simulated : ctaid=(2,1,0) tid=(11,7,0)
GPGPU-Sim PTX: 8500000 instructions simulated : ctaid=(0,3,0) tid=(11,1,0)
GPGPU-Sim PTX: 8600000 instructions simulated : ctaid=(4,1,0) tid=(0,1,0)
GPGPU-Sim PTX: 8700000 instructions simulated : ctaid=(3,0,0) tid=(5,4,0)
GPGPU-Sim PTX: 8800000 instructions simulated : ctaid=(7,2,0) tid=(1,0,0)
GPGPU-Sim PTX: 8900000 instructions simulated : ctaid=(5,0,0) tid=(11,3,0)
GPGPU-Sim PTX: 9000000 instructions simulated : ctaid=(8,0,0) tid=(11,1,0)
GPGPU-Sim PTX: 9100000 instructions simulated : ctaid=(8,3,0) tid=(1,2,0)
GPGPU-Sim uArch: cycles simulated: 25500  inst.: 8928324 (ipc=350.1) sim_rate=425158 (inst/sec) elapsed = 0:0:00:21 / Sun Feb 28 21:31:52 2016
GPGPU-Sim PTX: 9200000 instructions simulated : ctaid=(3,2,0) tid=(3,7,0)
GPGPU-Sim PTX: 9300000 instructions simulated : ctaid=(14,1,0) tid=(1,0,0)
GPGPU-Sim PTX: 9400000 instructions simulated : ctaid=(14,0,0) tid=(11,1,0)
GPGPU-Sim PTX: 9500000 instructions simulated : ctaid=(15,1,0) tid=(10,1,0)
GPGPU-Sim uArch: cycles simulated: 26000  inst.: 9329987 (ipc=358.8) sim_rate=424090 (inst/sec) elapsed = 0:0:00:22 / Sun Feb 28 21:31:53 2016
GPGPU-Sim PTX: 9600000 instructions simulated : ctaid=(5,1,0) tid=(3,7,0)
GPGPU-Sim PTX: 9700000 instructions simulated : ctaid=(14,0,0) tid=(10,1,0)
GPGPU-Sim PTX: 9800000 instructions simulated : ctaid=(3,0,0) tid=(9,4,0)
GPGPU-Sim PTX: 9900000 instructions simulated : ctaid=(13,3,0) tid=(15,3,0)
GPGPU-Sim PTX: 10000000 instructions simulated : ctaid=(15,3,0) tid=(14,7,0)
GPGPU-Sim PTX: 10100000 instructions simulated : ctaid=(9,1,0) tid=(13,1,0)
GPGPU-Sim uArch: cycles simulated: 27000  inst.: 9832799 (ipc=364.2) sim_rate=427513 (inst/sec) elapsed = 0:0:00:23 / Sun Feb 28 21:31:54 2016
GPGPU-Sim PTX: 10200000 instructions simulated : ctaid=(13,2,0) tid=(13,5,0)
GPGPU-Sim PTX: 10300000 instructions simulated : ctaid=(11,3,0) tid=(14,7,0)
GPGPU-Sim PTX: 10400000 instructions simulated : ctaid=(4,1,0) tid=(7,5,0)
GPGPU-Sim uArch: Shader 0 finished CTA #0 (28272,0), 4 CTAs running
GPGPU-Sim uArch: core:  0, cta: 0 initialized @(28273,0)
GPGPU-Sim uArch: Shader 0 finished CTA #1 (28290,0), 4 CTAs running
GPGPU-Sim uArch: core:  0, cta: 1 initialized @(28291,0)
GPGPU-Sim uArch: Shader 6 finished CTA #2 (28308,0), 4 CTAs running
GPGPU-Sim uArch: core:  6, cta: 2 initialized @(28309,0)
GPGPU-Sim uArch: Shader 4 finished CTA #1 (28341,0), 4 CTAs running
GPGPU-Sim uArch: core:  4, cta: 1 initialized @(28342,0)
GPGPU-Sim uArch: Shader 0 finished CTA #2 (28346,0), 4 CTAs running
GPGPU-Sim uArch: core:  0, cta: 2 initialized @(28347,0)
GPGPU-Sim uArch: Shader 1 finished CTA #1 (28350,0), 4 CTAs running
GPGPU-Sim uArch: core:  1, cta: 1 initialized @(28351,0)
GPGPU-Sim uArch: Shader 0 finished CTA #3 (28354,0), 4 CTAs running
GPGPU-Sim uArch: core:  0, cta: 3 initialized @(28355,0)
GPGPU-Sim uArch: Shader 4 finished CTA #2 (28356,0), 4 CTAs running
GPGPU-Sim uArch: core:  4, cta: 2 initialized @(28357,0)
GPGPU-Sim uArch: Shader 6 finished CTA #3 (28369,0), 4 CTAs running
GPGPU-Sim uArch: core:  6, cta: 3 initialized @(28370,0)
GPGPU-Sim uArch: Shader 0 finished CTA #4 (28372,0), 4 CTAs running
GPGPU-Sim uArch: core:  0, cta: 4 initialized @(28373,0)
GPGPU-Sim uArch: Shader 9 finished CTA #3 (28374,0), 4 CTAs running
GPGPU-Sim uArch: core:  9, cta: 3 initialized @(28375,0)
GPGPU-Sim uArch: Shader 2 finished CTA #1 (28378,0), 4 CTAs running
GPGPU-Sim uArch: core:  2, cta: 1 initialized @(28379,0)
GPGPU-Sim uArch: Shader 3 finished CTA #0 (28382,0), 4 CTAs running
GPGPU-Sim uArch: core:  3, cta: 0 initialized @(28383,0)
GPGPU-Sim uArch: Shader 9 finished CTA #4 (28390,0), 4 CTAs running
GPGPU-Sim uArch: core:  9, cta: 4 initialized @(28391,0)
GPGPU-Sim uArch: Shader 2 finished CTA #4 (28402,0), 4 CTAs running
GPGPU-Sim uArch: core:  2, cta: 4 initialized @(28403,0)
GPGPU-Sim uArch: Shader 6 finished CTA #4 (28412,0), 4 CTAs running
GPGPU-Sim uArch: core:  6, cta: 4 initialized @(28413,0)
GPGPU-Sim uArch: Shader 2 finished CTA #0 (28416,0), 4 CTAs running
GPGPU-Sim uArch: core:  2, cta: 0 initialized @(28417,0)
GPGPU-Sim uArch: Shader 4 finished CTA #3 (28420,0), 4 CTAs running
GPGPU-Sim uArch: core:  4, cta: 3 initialized @(28421,0)
GPGPU-Sim uArch: Shader 2 finished CTA #2 (28426,0), 4 CTAs running
GPGPU-Sim uArch: core:  2, cta: 2 initialized @(28427,0)
GPGPU-Sim uArch: Shader 14 finished CTA #0 (28436,0), 4 CTAs running
GPGPU-Sim uArch: core: 14, cta: 0 initialized @(28437,0)
GPGPU-Sim uArch: Shader 1 finished CTA #0 (28446,0), 4 CTAs running
GPGPU-Sim uArch: core:  1, cta: 0 initialized @(28447,0)
GPGPU-Sim uArch: Shader 3 finished CTA #1 (28450,0), 4 CTAs running
GPGPU-Sim uArch: core:  3, cta: 1 initialized @(28451,0)
GPGPU-Sim uArch: Shader 1 finished CTA #2 (28454,0), 4 CTAs running
GPGPU-Sim uArch: Shader 4 finished CTA #4 (28454,0), 4 CTAs running
GPGPU-Sim uArch: core:  4, cta: 4 initialized @(28455,0)
GPGPU-Sim uArch: core:  1, cta: 2 initialized @(28455,0)
GPGPU-Sim uArch: Shader 8 finished CTA #2 (28458,0), 4 CTAs running
GPGPU-Sim uArch: core:  8, cta: 2 initialized @(28459,0)
GPGPU-Sim uArch: Shader 1 finished CTA #3 (28462,0), 4 CTAs running
GPGPU-Sim uArch: core:  1, cta: 3 initialized @(28463,0)
GPGPU-Sim uArch: Shader 8 finished CTA #3 (28466,0), 4 CTAs running
GPGPU-Sim uArch: core:  8, cta: 3 initialized @(28467,0)
GPGPU-Sim uArch: Shader 1 finished CTA #4 (28470,0), 4 CTAs running
GPGPU-Sim uArch: core:  1, cta: 4 initialized @(28471,0)
GPGPU-Sim uArch: Shader 3 finished CTA #2 (28482,0), 4 CTAs running
GPGPU-Sim uArch: core:  3, cta: 2 initialized @(28483,0)
GPGPU-Sim uArch: Shader 8 finished CTA #4 (28488,0), 4 CTAs running
GPGPU-Sim uArch: core:  8, cta: 4 initialized @(28489,0)
GPGPU-Sim uArch: Shader 3 finished CTA #4 (28493,0), 4 CTAs running
GPGPU-Sim uArch: core:  3, cta: 4 initialized @(28494,0)
GPGPU-Sim uArch: cycles simulated: 28500  inst.: 10225754 (ipc=358.8) sim_rate=426073 (inst/sec) elapsed = 0:0:00:24 / Sun Feb 28 21:31:55 2016
GPGPU-Sim PTX: 10500000 instructions simulated : ctaid=(6,3,0) tid=(10,3,0)
GPGPU-Sim uArch: Shader 5 finished CTA #2 (28509,0), 4 CTAs running
GPGPU-Sim uArch: core:  5, cta: 2 initialized @(28510,0)
GPGPU-Sim uArch: Shader 3 finished CTA #3 (28514,0), 4 CTAs running
GPGPU-Sim uArch: core:  3, cta: 3 initialized @(28515,0)
GPGPU-Sim uArch: Shader 2 finished CTA #3 (28518,0), 4 CTAs running
GPGPU-Sim uArch: core:  2, cta: 3 initialized @(28519,0)
GPGPU-Sim uArch: Shader 5 finished CTA #3 (28529,0), 4 CTAs running
GPGPU-Sim uArch: core:  5, cta: 3 initialized @(28530,0)
GPGPU-Sim uArch: Shader 7 finished CTA #3 (28532,0), 4 CTAs running
GPGPU-Sim uArch: core:  7, cta: 3 initialized @(28533,0)
GPGPU-Sim uArch: Shader 5 finished CTA #4 (28534,0), 4 CTAs running
GPGPU-Sim uArch: core:  5, cta: 4 initialized @(28535,0)
GPGPU-Sim uArch: Shader 7 finished CTA #4 (28539,0), 4 CTAs running
GPGPU-Sim uArch: core:  7, cta: 4 initialized @(28540,0)
GPGPU-Sim uArch: Shader 10 finished CTA #4 (28626,0), 4 CTAs running
GPGPU-Sim uArch: core: 10, cta: 4 initialized @(28627,0)
GPGPU-Sim PTX: 10600000 instructions simulated : ctaid=(10,0,0) tid=(5,2,0)
GPGPU-Sim PTX: 10700000 instructions simulated : ctaid=(5,6,0) tid=(4,1,0)
GPGPU-Sim PTX: 10800000 instructions simulated : ctaid=(9,4,0) tid=(2,5,0)
GPGPU-Sim uArch: cycles simulated: 29500  inst.: 10523045 (ipc=356.7) sim_rate=420921 (inst/sec) elapsed = 0:0:00:25 / Sun Feb 28 21:31:56 2016
GPGPU-Sim PTX: 10900000 instructions simulated : ctaid=(7,2,0) tid=(9,0,0)
GPGPU-Sim PTX: 11000000 instructions simulated : ctaid=(13,5,0) tid=(2,1,0)
GPGPU-Sim PTX: 11100000 instructions simulated : ctaid=(7,4,0) tid=(11,7,0)
GPGPU-Sim PTX: 11200000 instructions simulated : ctaid=(11,5,0) tid=(12,1,0)
GPGPU-Sim uArch: cycles simulated: 30500  inst.: 10952996 (ipc=359.1) sim_rate=421269 (inst/sec) elapsed = 0:0:00:26 / Sun Feb 28 21:31:57 2016
GPGPU-Sim PTX: 11300000 instructions simulated : ctaid=(7,6,0) tid=(8,4,0)
GPGPU-Sim PTX: 11400000 instructions simulated : ctaid=(15,5,0) tid=(13,6,0)
GPGPU-Sim PTX: 11500000 instructions simulated : ctaid=(9,4,0) tid=(6,6,0)
GPGPU-Sim PTX: 11600000 instructions simulated : ctaid=(4,1,0) tid=(13,6,0)
GPGPU-Sim PTX: 11700000 instructions simulated : ctaid=(9,6,0) tid=(1,3,0)
GPGPU-Sim uArch: cycles simulated: 31500  inst.: 11488811 (ipc=364.7) sim_rate=425511 (inst/sec) elapsed = 0:0:00:27 / Sun Feb 28 21:31:58 2016
GPGPU-Sim PTX: 11800000 instructions simulated : ctaid=(2,6,0) tid=(1,0,0)
GPGPU-Sim PTX: 11900000 instructions simulated : ctaid=(11,6,0) tid=(7,3,0)
GPGPU-Sim PTX: 12000000 instructions simulated : ctaid=(6,1,0) tid=(10,2,0)
GPGPU-Sim PTX: 12100000 instructions simulated : ctaid=(7,3,0) tid=(1,7,0)
GPGPU-Sim uArch: Shader 14 finished CTA #2 (32086,0), 4 CTAs running
GPGPU-Sim uArch: core: 14, cta: 2 initialized @(32087,0)
GPGPU-Sim PTX: 12200000 instructions simulated : ctaid=(12,4,0) tid=(9,3,0)
GPGPU-Sim PTX: 12300000 instructions simulated : ctaid=(14,6,0) tid=(12,5,0)
GPGPU-Sim PTX: 12400000 instructions simulated : ctaid=(9,2,0) tid=(3,2,0)
GPGPU-Sim uArch: cycles simulated: 32500  inst.: 12097542 (ipc=372.2) sim_rate=432055 (inst/sec) elapsed = 0:0:00:28 / Sun Feb 28 21:31:59 2016
GPGPU-Sim PTX: 12500000 instructions simulated : ctaid=(9,6,0) tid=(10,1,0)
GPGPU-Sim PTX: 12600000 instructions simulated : ctaid=(7,6,0) tid=(2,4,0)
GPGPU-Sim PTX: 12700000 instructions simulated : ctaid=(11,0,0) tid=(11,2,0)
GPGPU-Sim PTX: 12800000 instructions simulated : ctaid=(5,0,0) tid=(15,4,0)
GPGPU-Sim PTX: 12900000 instructions simulated : ctaid=(7,4,0) tid=(1,2,0)
GPGPU-Sim PTX: 13000000 instructions simulated : ctaid=(4,6,0) tid=(6,6,0)
GPGPU-Sim uArch: Shader 7 finished CTA #2 (33488,0), 4 CTAs running
GPGPU-Sim uArch: core:  7, cta: 2 initialized @(33489,0)
GPGPU-Sim uArch: cycles simulated: 33500  inst.: 12717293 (ipc=379.6) sim_rate=438527 (inst/sec) elapsed = 0:0:00:29 / Sun Feb 28 21:32:00 2016
GPGPU-Sim PTX: 13100000 instructions simulated : ctaid=(9,0,0) tid=(10,2,0)
GPGPU-Sim PTX: 13200000 instructions simulated : ctaid=(2,7,0) tid=(0,7,0)
GPGPU-Sim PTX: 13300000 instructions simulated : ctaid=(7,0,0) tid=(7,2,0)
GPGPU-Sim uArch: cycles simulated: 34000  inst.: 12983992 (ipc=381.9) sim_rate=432799 (inst/sec) elapsed = 0:0:00:30 / Sun Feb 28 21:32:01 2016
GPGPU-Sim PTX: 13400000 instructions simulated : ctaid=(7,1,0) tid=(7,3,0)
GPGPU-Sim PTX: 13500000 instructions simulated : ctaid=(9,4,0) tid=(3,4,0)
GPGPU-Sim PTX: 13600000 instructions simulated : ctaid=(1,5,0) tid=(6,2,0)
GPGPU-Sim PTX: 13700000 instructions simulated : ctaid=(8,0,0) tid=(2,7,0)
GPGPU-Sim PTX: 13800000 instructions simulated : ctaid=(6,0,0) tid=(10,6,0)
GPGPU-Sim uArch: cycles simulated: 35000  inst.: 13503275 (ipc=385.8) sim_rate=435589 (inst/sec) elapsed = 0:0:00:31 / Sun Feb 28 21:32:02 2016
GPGPU-Sim PTX: 13900000 instructions simulated : ctaid=(3,6,0) tid=(1,7,0)
GPGPU-Sim PTX: 14000000 instructions simulated : ctaid=(7,1,0) tid=(14,5,0)
GPGPU-Sim PTX: 14100000 instructions simulated : ctaid=(8,3,0) tid=(5,2,0)
GPGPU-Sim PTX: 14200000 instructions simulated : ctaid=(10,6,0) tid=(9,4,0)
GPGPU-Sim PTX: 14300000 instructions simulated : ctaid=(1,7,0) tid=(6,5,0)
GPGPU-Sim PTX: 14400000 instructions simulated : ctaid=(9,5,0) tid=(15,5,0)
GPGPU-Sim uArch: cycles simulated: 36000  inst.: 14056606 (ipc=390.5) sim_rate=439268 (inst/sec) elapsed = 0:0:00:32 / Sun Feb 28 21:32:03 2016
GPGPU-Sim PTX: 14500000 instructions simulated : ctaid=(7,3,0) tid=(1,6,0)
GPGPU-Sim PTX: 14600000 instructions simulated : ctaid=(9,3,0) tid=(5,2,0)
GPGPU-Sim PTX: 14700000 instructions simulated : ctaid=(8,2,0) tid=(8,6,0)
GPGPU-Sim PTX: 14800000 instructions simulated : ctaid=(7,3,0) tid=(13,0,0)
GPGPU-Sim PTX: 14900000 instructions simulated : ctaid=(7,1,0) tid=(3,6,0)
GPGPU-Sim PTX: 15000000 instructions simulated : ctaid=(1,5,0) tid=(1,5,0)
GPGPU-Sim uArch: cycles simulated: 37000  inst.: 14635415 (ipc=395.6) sim_rate=443497 (inst/sec) elapsed = 0:0:00:33 / Sun Feb 28 21:32:04 2016
GPGPU-Sim PTX: 15100000 instructions simulated : ctaid=(8,6,0) tid=(4,7,0)
GPGPU-Sim PTX: 15200000 instructions simulated : ctaid=(11,0,0) tid=(8,7,0)
GPGPU-Sim PTX: 15300000 instructions simulated : ctaid=(4,5,0) tid=(2,5,0)
GPGPU-Sim PTX: 15400000 instructions simulated : ctaid=(15,5,0) tid=(9,4,0)
GPGPU-Sim PTX: 15500000 instructions simulated : ctaid=(1,6,0) tid=(8,3,0)
GPGPU-Sim PTX: 15600000 instructions simulated : ctaid=(10,6,0) tid=(3,1,0)
GPGPU-Sim uArch: cycles simulated: 38000  inst.: 15177099 (ipc=399.4) sim_rate=446385 (inst/sec) elapsed = 0:0:00:34 / Sun Feb 28 21:32:05 2016
GPGPU-Sim PTX: 15700000 instructions simulated : ctaid=(4,1,0) tid=(6,4,0)
GPGPU-Sim PTX: 15800000 instructions simulated : ctaid=(8,0,0) tid=(14,2,0)
GPGPU-Sim PTX: 15900000 instructions simulated : ctaid=(0,6,0) tid=(12,4,0)
GPGPU-Sim PTX: 16000000 instructions simulated : ctaid=(9,1,0) tid=(2,3,0)
GPGPU-Sim uArch: cycles simulated: 39000  inst.: 15599860 (ipc=400.0) sim_rate=445710 (inst/sec) elapsed = 0:0:00:35 / Sun Feb 28 21:32:06 2016
GPGPU-Sim PTX: 16100000 instructions simulated : ctaid=(4,6,0) tid=(3,3,0)
GPGPU-Sim PTX: 16200000 instructions simulated : ctaid=(7,0,0) tid=(2,3,0)
GPGPU-Sim PTX: 16300000 instructions simulated : ctaid=(12,6,0) tid=(14,6,0)
GPGPU-Sim uArch: Shader 13 finished CTA #2 (39684,0), 4 CTAs running
GPGPU-Sim uArch: core: 13, cta: 2 initialized @(39685,0)
GPGPU-Sim PTX: 16400000 instructions simulated : ctaid=(8,5,0) tid=(4,3,0)
GPGPU-Sim uArch: cycles simulated: 40000  inst.: 16036714 (ipc=400.9) sim_rate=445464 (inst/sec) elapsed = 0:0:00:36 / Sun Feb 28 21:32:07 2016
GPGPU-Sim PTX: 16500000 instructions simulated : ctaid=(11,1,0) tid=(4,1,0)
GPGPU-Sim uArch: Shader 14 finished CTA #3 (40156,0), 4 CTAs running
GPGPU-Sim uArch: core: 14, cta: 3 initialized @(40157,0)
GPGPU-Sim PTX: 16600000 instructions simulated : ctaid=(13,6,0) tid=(8,5,0)
GPGPU-Sim PTX: 16700000 instructions simulated : ctaid=(15,6,0) tid=(7,2,0)
GPGPU-Sim PTX: 16800000 instructions simulated : ctaid=(6,1,0) tid=(12,7,0)
GPGPU-Sim PTX: 16900000 instructions simulated : ctaid=(7,5,0) tid=(5,0,0)
GPGPU-Sim uArch: cycles simulated: 41000  inst.: 16509812 (ipc=402.7) sim_rate=446211 (inst/sec) elapsed = 0:0:00:37 / Sun Feb 28 21:32:08 2016
GPGPU-Sim PTX: 17000000 instructions simulated : ctaid=(6,3,0) tid=(7,5,0)
GPGPU-Sim PTX: 17100000 instructions simulated : ctaid=(8,2,0) tid=(12,1,0)
GPGPU-Sim PTX: 17200000 instructions simulated : ctaid=(4,6,0) tid=(12,0,0)
GPGPU-Sim PTX: 17300000 instructions simulated : ctaid=(9,2,0) tid=(8,2,0)
GPGPU-Sim uArch: Shader 5 finished CTA #1 (41821,0), 4 CTAs running
GPGPU-Sim uArch: core:  5, cta: 1 initialized @(41822,0)
GPGPU-Sim PTX: 17400000 instructions simulated : ctaid=(1,5,0) tid=(3,5,0)
GPGPU-Sim uArch: cycles simulated: 42000  inst.: 16992431 (ipc=404.6) sim_rate=447169 (inst/sec) elapsed = 0:0:00:38 / Sun Feb 28 21:32:09 2016
GPGPU-Sim PTX: 17500000 instructions simulated : ctaid=(15,6,0) tid=(10,6,0)
GPGPU-Sim uArch: Shader 4 finished CTA #0 (42179,0), 4 CTAs running
GPGPU-Sim uArch: core:  4, cta: 0 initialized @(42180,0)
GPGPU-Sim PTX: 17600000 instructions simulated : ctaid=(7,3,0) tid=(14,2,0)
GPGPU-Sim uArch: Shader 5 finished CTA #2 (42322,0), 4 CTAs running
GPGPU-Sim uArch: core:  5, cta: 2 initialized @(42323,0)
GPGPU-Sim uArch: Shader 5 finished CTA #3 (42466,0), 4 CTAs running
GPGPU-Sim uArch: core:  5, cta: 3 initialized @(42467,0)
GPGPU-Sim PTX: 17700000 instructions simulated : ctaid=(2,7,0) tid=(7,2,0)
GPGPU-Sim PTX: 17800000 instructions simulated : ctaid=(3,7,0) tid=(11,5,0)
GPGPU-Sim PTX: 17900000 instructions simulated : ctaid=(13,4,0) tid=(2,1,0)
GPGPU-Sim uArch: Shader 5 finished CTA #4 (43135,0), 4 CTAs running
GPGPU-Sim uArch: core:  5, cta: 4 initialized @(43136,0)
GPGPU-Sim PTX: 18000000 instructions simulated : ctaid=(4,1,0) tid=(7,0,0)
GPGPU-Sim PTX: 18100000 instructions simulated : ctaid=(6,3,0) tid=(9,3,0)
GPGPU-Sim uArch: Shader 14 finished CTA #1 (43380,0), 4 CTAs running
GPGPU-Sim uArch: core: 14, cta: 1 initialized @(43381,0)
GPGPU-Sim uArch: Shader 12 finished CTA #3 (43393,0), 4 CTAs running
GPGPU-Sim uArch: core: 12, cta: 3 initialized @(43394,0)
GPGPU-Sim uArch: Shader 14 finished CTA #0 (43429,0), 4 CTAs running
GPGPU-Sim uArch: core: 14, cta: 0 initialized @(43430,0)
GPGPU-Sim uArch: cycles simulated: 43500  inst.: 17682676 (ipc=406.5) sim_rate=453401 (inst/sec) elapsed = 0:0:00:39 / Sun Feb 28 21:32:10 2016
GPGPU-Sim PTX: 18200000 instructions simulated : ctaid=(5,7,0) tid=(12,1,0)
GPGPU-Sim PTX: 18300000 instructions simulated : ctaid=(10,7,0) tid=(12,0,0)
GPGPU-Sim uArch: Shader 10 finished CTA #4 (43841,0), 4 CTAs running
GPGPU-Sim uArch: core: 10, cta: 4 initialized @(43842,0)
GPGPU-Sim PTX: 18400000 instructions simulated : ctaid=(0,6,0) tid=(7,7,0)
GPGPU-Sim uArch: Shader 11 finished CTA #4 (43935,0), 4 CTAs running
GPGPU-Sim uArch: core: 11, cta: 4 initialized @(43936,0)
GPGPU-Sim uArch: Shader 10 finished CTA #3 (43948,0), 4 CTAs running
GPGPU-Sim uArch: core: 10, cta: 3 initialized @(43949,0)
GPGPU-Sim uArch: Shader 13 finished CTA #0 (43993,0), 4 CTAs running
GPGPU-Sim uArch: core: 13, cta: 0 initialized @(43994,0)
GPGPU-Sim uArch: cycles simulated: 44000  inst.: 17952329 (ipc=408.0) sim_rate=448808 (inst/sec) elapsed = 0:0:00:40 / Sun Feb 28 21:32:11 2016
GPGPU-Sim uArch: Shader 7 finished CTA #3 (44036,0), 4 CTAs running
GPGPU-Sim uArch: core:  7, cta: 3 initialized @(44037,0)
GPGPU-Sim PTX: 18500000 instructions simulated : ctaid=(5,6,0) tid=(8,2,0)
GPGPU-Sim uArch: Shader 7 finished CTA #4 (44120,0), 4 CTAs running
GPGPU-Sim uArch: core:  7, cta: 4 initialized @(44121,0)
GPGPU-Sim uArch: Shader 13 finished CTA #1 (44177,0), 4 CTAs running
GPGPU-Sim uArch: core: 13, cta: 1 initialized @(44178,0)
GPGPU-Sim uArch: Shader 13 finished CTA #3 (44261,0), 4 CTAs running
GPGPU-Sim uArch: core: 13, cta: 3 initialized @(44262,0)
GPGPU-Sim PTX: 18600000 instructions simulated : ctaid=(13,5,0) tid=(8,5,0)
GPGPU-Sim PTX: 18700000 instructions simulated : ctaid=(13,5,0) tid=(14,6,0)
GPGPU-Sim uArch: Shader 9 finished CTA #3 (44609,0), 4 CTAs running
GPGPU-Sim uArch: core:  9, cta: 3 initialized @(44610,0)
GPGPU-Sim PTX: 18800000 instructions simulated : ctaid=(6,5,0) tid=(9,4,0)
GPGPU-Sim uArch: Shader 6 finished CTA #2 (44744,0), 4 CTAs running
GPGPU-Sim uArch: core:  6, cta: 2 initialized @(44745,0)
GPGPU-Sim uArch: Shader 6 finished CTA #3 (44778,0), 4 CTAs running
GPGPU-Sim uArch: core:  6, cta: 3 initialized @(44779,0)
GPGPU-Sim uArch: Shader 6 finished CTA #4 (44827,0), 4 CTAs running
GPGPU-Sim uArch: core:  6, cta: 4 initialized @(44828,0)
GPGPU-Sim PTX: 18900000 instructions simulated : ctaid=(8,5,0) tid=(11,6,0)
[...]
traffic_breakdown_memtocore[INST_ACC_R] = 1779016 {136:13081,}
traffic_breakdown_memtocore[LOCAL_ACC_R] = 605880 {136:4455,}
traffic_breakdown_memtocore[LOCAL_ACC_W] = 290536 {8:36317,}
maxmrqlatency = 616 
maxdqlatency = 0 
maxmflatency = 1827 
averagemflatency = 272 
max_icnt2mem_latency = 1107 
max_icnt2sh_latency = 139122 
mrq_lat_table:8792 	875 	826 	1550 	3047 	3055 	3107 	1968 	257 	9 	0 	0 	0 	0 	0 	0 	0 	0 	0 	0 	0 	0 	0 	0 	0 	0 	0 	0 	0 	0 	0 	0 	
dq_lat_table:0 	0 	0 	0 	0 	0 	0 	0 	0 	0 	0 	0 	0 	0 	0 	0 	0 	0 	0 	0 	0 	0 	0 	0 	0 	0 	0 	0 	0 	0 	0 	0 	
mf_lat_table:0 	0 	0 	0 	0 	0 	0 	40107 	7206 	4624 	861 	0 	0 	0 	0 	0 	0 	0 	0 	0 	0 	0 	0 	0 	0 	0 	0 	0 	0 	0 	0 	0 	
icnt2mem_lat_table:0 	0 	0 	20590 	10511 	8955 	22394 	2099 	2361 	433 	4 	0 	0 	0 	0 	0 	0 	0 	0 	0 	0 	0 	0 	0 	
icnt2sh_lat_table:0 	0 	0 	2244 	3040 	2461 	543 	1 	0 	186 	497 	1395 	3086 	2636 	6108 	10107 	17352 	3142 	0 	0 	0 	0 	0 	0 	
mf_lat_pw_table:0 	0 	0 	0 	0 	0 	0 	230 	9 	16 	2 	0 	0 	0 	0 	0 	0 	0 	0 	0 	0 	0 	0 	0 	0 	0 	0 	0 	0 	0 	0 	0 	
maximum concurrent accesses to same row:
dram[0]:        54        56        36        34        26        24        36        22        44        44        48        21        39        26        20        38 
dram[1]:        52        54        34        39        20        22        31        36        31        36        47        37        63        31        25        73 
dram[2]:        62        62        54        56        30        28        25        35        28        26        18        53        61        51        34        43 
dram[3]:        58        60        54        56        24        28        35        37        38        25        39        38        69        28        20        35 
dram[4]:        62        64        56        52        32        28        35        20        24        24        41        18        47        29        22        51 
dram[5]:        58        60        56        48        26        30        23        37        28        26        34        42        36        41        18        38 
maximum service time to same row:
dram[0]:     50762     36600     24212     24849     49834     25444     35843     14991     31258     25899     43006     39106     30691     26280     70959     27749 
dram[1]:     40604     35195     24767     72535     31670     20173     14430     47570     26112     36191     57881     50634     49147     55455     49347     52542 
dram[2]:     49231     32876     23918     51819     30222     41297     24308     64806     25902     53802     30498     35441     30474     58572     40535     51631 
dram[3]:     40653     29087     40271     50343     56957     35119     45729     48107     38400     30425     36592     48122     38311     29062     47931     47747 
dram[4]:     36775     43636     18225     27860     38808     29335     28128     27228     23108     31241     49428     34727     29589     29615     57678     49308 
dram[5]:     26712     15488     67730     50606     29250     32753     31088     25573     26943     31841     52435     51600     30912     45710     50593     69904 
average row accesses per activate:
dram[0]:  7.903226  8.407408  5.418605  5.894737  4.640000  3.750000  4.470588  3.753086  4.790323  4.870370  6.100000  5.659091  5.744186  6.885714  5.945946  6.764706 
dram[1]:  5.951220  6.714286  5.463415  7.032258  3.758065  3.291667  3.482759  5.000000  4.700000  5.018868  6.805555  4.716981  4.980000  5.809524  5.186047  6.656250 
dram[2]:  9.520000 13.588235  9.120000  7.266667  4.729167  3.859375  3.975000  6.021739  5.644444  5.574468  5.466667  5.155556  5.619048  6.615385  7.181818  6.787879 
dram[3]:  5.825000  6.638889  8.695652  9.040000  5.095238  3.967213  4.500000  4.587302  6.615385  5.733333  6.210526  5.000000  6.076923  5.369565  5.500000  5.641026 
dram[4]: 10.086957 15.428572 10.894737  6.696970  4.103448  3.619048  4.580645  4.220588  6.133333  4.625000  5.925000  4.918367  7.545455  5.291667  6.764706  6.500000 
dram[5]:  7.030303 11.368421 10.380953  5.564103  3.750000  3.875000  4.117647  4.580645  6.272727  4.767857  5.166667  6.051282  6.657143  8.766666  6.735294  5.743590 
average row locality = 23486/4262 = 5.510559
number of total memory accesses made:
dram[0]:         0         0         0         0         0         0         0         0         0         0         0         0         0         0         0         0 
dram[1]:         0         0         0         0         0         0         0         0         0         0         0         0         0         0         0         0 
dram[2]:         0         0         0         0         0         0         0         0         0         0         0         0         0         0         0         0 
dram[3]:         0         0         0         0         0         0         0         0         0         0         0         0         0         0         0         0 
dram[4]:         0         0         0         0         0         0         0         0         0         0         0         0         0         0         0         0 
dram[5]:         0         0         0         0         0         0         0         0         0         0         0         0         0         0         0         0 
total accesses: 0
min_bank_accesses = 0!
min_chip_accesses = 0!
number of total read accesses:
dram[0]:       113        99       103        96        93       100       119       125       126       120       110       112       110       113       101       105 
dram[1]:       110       102        96        93        96        96       125       112       126       116       108       110       115       112       101       100 
dram[2]:       105       103       100        93        94        98       131       114       118       118       110       107       111       114       104       102 
dram[3]:       101       104        85        96        87       101       113       123       114       115       107       106       109       115       100       100 
dram[4]:       101        97        90        94        99        94       116       121       122       119       107       111       114       117       105       107 
dram[5]:        99        99        93        91       101        85       117       116       123       120       110       109       109       121       105       103 
total reads: 10276
bank skew: 131/85 = 1.54
chip skew: 1745/1676 = 1.04
number of total write accesses:
dram[0]:       132       128       130       128       139       140       185       179       171       143       134       137       137       128       119       125 
dram[1]:       134       133       128       125       137       141       178       168       156       150       137       140       134       132       122       113 
dram[2]:       133       128       128       125       133       149       187       163       136       144       136       125       125       144       133       122 
dram[3]:       132       135       115       130       127       141       157       166       144       143       129       139       128       132       120       120 
dram[4]:       131       119       117       127       139       134       168       166       154       140       130       130       135       137       125       127 
dram[5]:       133       117       125       126       139       132       163       168       153       147       138       127       124       142       124       121 
total reads: 13210
bank skew: 187/113 = 1.65
chip skew: 2255/2158 = 1.04
average mf latency per bank:
dram[0]:        546       479       594       550       658       595       661       582       590       655       704       665       695       699       647       620
dram[1]:        505       469       546       534       563       565       592       596       574       619       639       615       637       623       584       648
dram[2]:        533       525       620       620       697       629       580       707       694       662       690       734       730       658       634       659
dram[3]:        481       488       664       585       642       582       620       590       623       618       659       650       675       623       625       620
dram[4]:        484       555       679       600       621       697       652       636       628       620       656       717       696       658       619       631
dram[5]:        453       538       603       538       526       633       572       575       598       544       575       655       651       581       586       595
maximum mf latency per bank:
dram[0]:       1293      1002      1676      1197      1363      1246      1436      1223      1354      1238      1300      1170      1424      1291      1230      1128
dram[1]:        914      1006      1318      1232      1097      1194      1045      1048      1033       997      1067      1015       960       939       997      1089
dram[2]:       1316      1333      1735      1723      1548      1584      1584      1442      1432      1494      1290      1221      1328      1442      1382      1319
dram[3]:       1138      1370      1537      1697      1341      1619      1117      1455      1075      1072       991      1106      1029      1192      1153      1087
dram[4]:       1393      1510      1827      1821      1698      1698      1689      1761      1615      1426      1322      1302      1365      1197      1231      1358
dram[5]:       1374      1347      1776      1558      1604      1693      1447      1507      1206      1027      1112      1036      1117      1110      1102      1070

Number of Memory Banks Accessed per Memory Operation per Warp (from 0):
0	0	0	0	0	0	0	0	0	0	0	0	0	0	0	0	0	0	0	0	0	0	0	0	0	0	0	0	0	0	0	0	0	0	0	0	0	0	0	0	0	0	0	0	0	0	0	0	0	0	0	0	0	0	0	0	0	0	0	0	0	0	0	0	0	0	0	0	0	0	0	0	0	0	0	0	0	0	0	0	0	0	0	0	0	0	0	0	0	0	0	0	0	0	0	0	
Average # of Memory Banks Accessed per Memory Operation per Warp=-nan

position of mrq chosen
0	0	0	0	0	0	0	0	0	0	0	0	0	0	0	0	

average position of mrq chosen = -nan
Memory Partition 0: 
Cache L2_bank_000:
MSHR contents

Cache L2_bank_001:
MSHR contents

In Dram Latency Queue (total = 0): 
DRAM[0]: 16 bks, busW=4 BL=8 CL=12, tRRD=2 tCCD=6, tRCD=12 tRAS=28 tRP=12 tRC=40
n_cmd=183642 n_nop=174635 n_act=751 n_pre=735 n_req=4000 n_rd=3490 n_write=4031 bw_util=0.08191
n_activity=36191 dram_eff=0.4156
bk0: 226a 177012i bk1: 198a 177518i bk2: 206a 176160i bk3: 192a 176372i bk4: 186a 174804i bk5: 200a 174868i bk6: 238a 172913i bk7: 250a 172676i bk8: 252a 174776i bk9: 240a 175153i bk10: 220a 175388i bk11: 224a 175508i bk12: 220a 175136i bk13: 226a 175553i bk14: 202a 176523i bk15: 210a 176610i 
dram_util_bins: 0 0 0 0 0 0 0 0 0 0
dram_eff_bins: 0 0 0 0 0 0 0 0 0 0
mrqq: max=16 avg=1.17178
Memory Partition 1: 
Cache L2_bank_002:
MSHR contents

Cache L2_bank_003:
MSHR contents

In Dram Latency Queue (total = 0): 
DRAM[1]: 16 bks, busW=4 BL=8 CL=12, tRRD=2 tCCD=6, tRCD=12 tRAS=28 tRP=12 tRC=40
n_cmd=183642 n_nop=174652 n_act=794 n_pre=778 n_req=3946 n_rd=3436 n_write=3982 bw_util=0.08079
n_activity=35728 dram_eff=0.4152
bk0: 220a 176844i bk1: 204a 177420i bk2: 192a 176092i bk3: 186a 176651i bk4: 192a 175085i bk5: 192a 174300i bk6: 250a 172942i bk7: 224a 173951i bk8: 252a 174874i bk9: 232a 175201i bk10: 216a 175297i bk11: 220a 175375i bk12: 230a 175057i bk13: 224a 175509i bk14: 202a 176554i bk15: 200a 177074i 
dram_util_bins: 0 0 0 0 0 0 0 0 0 0
dram_eff_bins: 0 0 0 0 0 0 0 0 0 0
mrqq: max=16 avg=1.05188
Memory Partition 2: 
Cache L2_bank_004:
MSHR contents

Cache L2_bank_005:
MSHR contents

In Dram Latency Queue (total = 0): 
DRAM[2]: 16 bks, busW=4 BL=8 CL=12, tRRD=2 tCCD=6, tRCD=12 tRAS=28 tRP=12 tRC=40
n_cmd=183642 n_nop=174943 n_act=664 n_pre=648 n_req=3933 n_rd=3444 n_write=3943 bw_util=0.08045
n_activity=35137 dram_eff=0.4205
bk0: 210a 177371i bk1: 206a 177737i bk2: 200a 176865i bk3: 186a 177167i bk4: 188a 175619i bk5: 196a 174482i bk6: 262a 172634i bk7: 228a 173875i bk8: 236a 175815i bk9: 236a 175377i bk10: 220a 175017i bk11: 214a 175765i bk12: 222a 175154i bk13: 228a 175019i bk14: 208a 176057i bk15: 204a 176453i 
dram_util_bins: 0 0 0 0 0 0 0 0 0 0
dram_eff_bins: 0 0 0 0 0 0 0 0 0 0
mrqq: max=16 avg=1.21364
Memory Partition 3: 
Cache L2_bank_006:
MSHR contents

Cache L2_bank_007:
MSHR contents

In Dram Latency Queue (total = 0): 
DRAM[3]: 16 bks, busW=4 BL=8 CL=12, tRRD=2 tCCD=6, tRCD=12 tRAS=28 tRP=12 tRC=40
n_cmd=183642 n_nop=175090 n_act=685 n_pre=669 n_req=3834 n_rd=3352 n_write=3846 bw_util=0.07839
n_activity=34469 dram_eff=0.4177
bk0: 202a 177359i bk1: 208a 177036i bk2: 170a 177673i bk3: 192a 177132i bk4: 174a 176052i bk5: 202a 175307i bk6: 226a 174491i bk7: 246a 173818i bk8: 228a 175829i bk9: 230a 175621i bk10: 214a 176096i bk11: 212a 175922i bk12: 218a 175968i bk13: 230a 175540i bk14: 200a 176601i bk15: 200a 176710i 
dram_util_bins: 0 0 0 0 0 0 0 0 0 0
dram_eff_bins: 0 0 0 0 0 0 0 0 0 0
mrqq: max=16 avg=1.04211
Memory Partition 4: 
Cache L2_bank_008:
MSHR contents

Cache L2_bank_009:
MSHR contents

In Dram Latency Queue (total = 0): 
DRAM[4]: 16 bks, busW=4 BL=8 CL=12, tRRD=2 tCCD=6, tRCD=12 tRAS=28 tRP=12 tRC=40
n_cmd=183642 n_nop=174979 n_act=681 n_pre=665 n_req=3893 n_rd=3428 n_write=3889 bw_util=0.07969
n_activity=35063 dram_eff=0.4174
bk0: 202a 177624i bk1: 194a 178147i bk2: 180a 176871i bk3: 188a 176706i bk4: 198a 175177i bk5: 188a 174489i bk6: 232a 173191i bk7: 242a 172915i bk8: 244a 174774i bk9: 238a 174916i bk10: 214a 175837i bk11: 222a 175449i bk12: 228a 174963i bk13: 234a 175348i bk14: 210a 176625i bk15: 214a 176399i 
dram_util_bins: 0 0 0 0 0 0 0 0 0 0
dram_eff_bins: 0 0 0 0 0 0 0 0 0 0
mrqq: max=16 avg=1.17821
Memory Partition 5: 
Cache L2_bank_010:
MSHR contents

Cache L2_bank_011:
MSHR contents

In Dram Latency Queue (total = 0): 
DRAM[5]: 16 bks, busW=4 BL=8 CL=12, tRRD=2 tCCD=6, tRCD=12 tRAS=28 tRP=12 tRC=40
n_cmd=183642 n_nop=174988 n_act=687 n_pre=671 n_req=3880 n_rd=3402 n_write=3894 bw_util=0.07946
n_activity=34992 dram_eff=0.417
bk0: 198a 177503i bk1: 198a 177732i bk2: 186a 176766i bk3: 182a 176694i bk4: 202a 175437i bk5: 170a 175027i bk6: 234a 174019i bk7: 232a 173920i bk8: 246a 175529i bk9: 240a 175639i bk10: 220a 175941i bk11: 218a 176111i bk12: 218a 176085i bk13: 242a 174943i bk14: 210a 176428i bk15: 206a 176909i 
dram_util_bins: 0 0 0 0 0 0 0 0 0 0
dram_eff_bins: 0 0 0 0 0 0 0 0 0 0
mrqq: max=16 avg=1.02371

========= L2 cache stats =========
L2_cache_bank[0]: Access = 5638, Miss = 875, Miss_rate = 0.155, Pending_hits = 110, Reservation_fails = 1115
L2_cache_bank[1]: Access = 5741, Miss = 870, Miss_rate = 0.152, Pending_hits = 66, Reservation_fails = 633
L2_cache_bank[2]: Access = 5640, Miss = 877, Miss_rate = 0.155, Pending_hits = 87, Reservation_fails = 564
L2_cache_bank[3]: Access = 5653, Miss = 841, Miss_rate = 0.149, Pending_hits = 88, Reservation_fails = 387
L2_cache_bank[4]: Access = 5483, Miss = 873, Miss_rate = 0.159, Pending_hits = 78, Reservation_fails = 585
L2_cache_bank[5]: Access = 5584, Miss = 849, Miss_rate = 0.152, Pending_hits = 97, Reservation_fails = 373
L2_cache_bank[6]: Access = 5726, Miss = 816, Miss_rate = 0.143, Pending_hits = 71, Reservation_fails = 519
L2_cache_bank[7]: Access = 5863, Miss = 860, Miss_rate = 0.147, Pending_hits = 84, Reservation_fails = 419
L2_cache_bank[8]: Access = 5523, Miss = 854, Miss_rate = 0.155, Pending_hits = 87, Reservation_fails = 788
L2_cache_bank[9]: Access = 5317, Miss = 860, Miss_rate = 0.162, Pending_hits = 68, Reservation_fails = 389
L2_cache_bank[10]: Access = 5684, Miss = 857, Miss_rate = 0.151, Pending_hits = 69, Reservation_fails = 591
L2_cache_bank[11]: Access = 5495, Miss = 844, Miss_rate = 0.154, Pending_hits = 82, Reservation_fails = 377
L2_total_cache_accesses = 67347
L2_total_cache_misses = 10276
L2_total_cache_miss_rate = 0.1526
L2_total_cache_pending_hits = 987
L2_total_cache_reservation_fails = 6740
L2_total_cache_breakdown:
	L2_cache_stats_breakdown[GLOBAL_ACC_R][HIT] = 3706
	L2_cache_stats_breakdown[GLOBAL_ACC_R][HIT_RESERVED] = 14
	L2_cache_stats_breakdown[GLOBAL_ACC_R][MISS] = 84
	L2_cache_stats_breakdown[GLOBAL_ACC_R][RESERVATION_FAIL] = 7
	L2_cache_stats_breakdown[LOCAL_ACC_R][HIT] = 4201
	L2_cache_stats_breakdown[LOCAL_ACC_R][HIT_RESERVED] = 64
	L2_cache_stats_breakdown[LOCAL_ACC_R][MISS] = 190
	L2_cache_stats_breakdown[CONST_ACC_R][HIT] = 22
	L2_cache_stats_breakdown[CONST_ACC_R][HIT_RESERVED] = 6
	L2_cache_stats_breakdown[CONST_ACC_R][MISS] = 2
	L2_cache_stats_breakdown[CONST_ACC_R][RESERVATION_FAIL] = 353
	L2_cache_stats_breakdown[GLOBAL_ACC_W][HIT] = 5397
	L2_cache_stats_breakdown[GLOBAL_ACC_W][HIT_RESERVED] = 747
	L2_cache_stats_breakdown[GLOBAL_ACC_W][MISS] = 2048
	L2_cache_stats_breakdown[GLOBAL_ACC_W][RESERVATION_FAIL] = 95
	L2_cache_stats_breakdown[LOCAL_ACC_W][HIT] = 28815
	L2_cache_stats_breakdown[LOCAL_ACC_W][MISS] = 7502
	L2_cache_stats_breakdown[LOCAL_ACC_W][RESERVATION_FAIL] = 543
	L2_cache_stats_breakdown[L1_WRBK_ACC][HIT] = 1071
	L2_cache_stats_breakdown[L1_WRBK_ACC][MISS] = 397
	L2_cache_stats_breakdown[INST_ACC_R][HIT] = 12872
	L2_cache_stats_breakdown[INST_ACC_R][HIT_RESERVED] = 156
	L2_cache_stats_breakdown[INST_ACC_R][MISS] = 53
	L2_cache_stats_breakdown[INST_ACC_R][RESERVATION_FAIL] = 5742
L2_cache_data_port_util = 0.127
L2_cache_fill_port_util = 0.025

icnt_total_pkts_mem_to_simt=151299
icnt_total_pkts_simt_to_mem=232525
LD_mem_lat_dist  0 0 0 0 0 0 0 0 0 0 0 0 0 0 0 0 0 0 0 0 0 0 0 0 0 0 0
ST_mem_lat_dist  0 0 0 0 0 0 0 0 0 0 0 0 0 0 0 0 0 0 0 0 0 0 0 0 0 0 0
----------------------------Interconnect-DETAILS--------------------------------
Class 0:
Packet latency average = 17.5657
	minimum = 6
	maximum = 630
Network latency average = 13.8498
	minimum = 6
	maximum = 582
Slowest packet = 1359
Flit latency average = 13.2268
	minimum = 6
	maximum = 578
Slowest flit = 5056
Fragmentation average = 0.127618
	minimum = 0
	maximum = 553
Injected packet rate average = 0.0354671
	minimum = 0.0283418 (at node 5)
	maximum = 0.0413016 (at node 22)
Accepted packet rate average = 0.0354671
	minimum = 0.0282124 (at node 5)
	maximum = 0.0421426 (at node 22)
Injected flit rate average = 0.102181
	minimum = 0.0846086 (at node 24)
	maximum = 0.125529 (at node 1)
Accepted flit rate average= 0.102181
	minimum = 0.0624627 (at node 0)
	maximum = 0.143693 (at node 22)
Injected packet length average = 2.881
Accepted packet length average = 2.881
Total in-flight flits = 0 (0 measured)
====== Overall Traffic Statistics ======
====== Traffic class 0 ======
Packet latency average = 17.5657 (1 samples)
	minimum = 6 (1 samples)
	maximum = 630 (1 samples)
Network latency average = 13.8498 (1 samples)
	minimum = 6 (1 samples)
	maximum = 582 (1 samples)
Flit latency average = 13.2268 (1 samples)
	minimum = 6 (1 samples)
	maximum = 578 (1 samples)
Fragmentation average = 0.127618 (1 samples)
	minimum = 0 (1 samples)
	maximum = 553 (1 samples)
Injected packet rate average = 0.0354671 (1 samples)
	minimum = 0.0283418 (1 samples)
	maximum = 0.0413016 (1 samples)
Accepted packet rate average = 0.0354671 (1 samples)
	minimum = 0.0282124 (1 samples)
	maximum = 0.0421426 (1 samples)
Injected flit rate average = 0.102181 (1 samples)
	minimum = 0.0846086 (1 samples)
	maximum = 0.125529 (1 samples)
Accepted flit rate average = 0.102181 (1 samples)
	minimum = 0.0624627 (1 samples)
	maximum = 0.143693 (1 samples)
Injected packet size average = 2.881 (1 samples)
Accepted packet size average = 2.881 (1 samples)
Hops average = 1 (1 samples)
----------------------------END-of-Interconnect-DETAILS-------------------------


gpgpu_simulation_time = 0 days, 0 hrs, 2 min, 14 sec (134 sec)
gpgpu_simulation_rate = 467780 (inst/sec)
gpgpu_simulation_rate = 1038 (cycle/sec)
GPGPU-Sim API: Stream Manager State
GPGPU-Sim: detected inactive GPU simulation thread

checksum=75ef40cb5b8e
Kernel Time: 131761.125000 
