

        *** GPGPU-Sim Simulator Version 3.2.2  [build 0] ***


GPGPU-Sim PTX: simulation mode 0 (can change with PTX_SIM_MODE_FUNC environment variable:
               1=functional simulation only, 0=detailed performance simulator)
GPGPU-Sim: Configuration options:

-network_mode                           1 # Interconnection network mode
-inter_config_file   config_fermi_islip.icnt # Interconnection network config file
-gpgpu_ptx_use_cuobjdump                    1 # Use cuobjdump to extract ptx and sass from binaries
-gpgpu_experimental_lib_support                    0 # Try to extract code from cuda libraries [Broken because of unknown cudaGetExportTable]
-gpgpu_ptx_convert_to_ptxplus                    0 # Convert SASS (native ISA) to ptxplus and run ptxplus
-gpgpu_ptx_force_max_capability                   20 # Force maximum compute capability
-gpgpu_ptx_inst_debug_to_file                    0 # Dump executed instructions' debug information to file
-gpgpu_ptx_inst_debug_file       inst_debug.txt # Executed instructions' debug output file
-gpgpu_ptx_inst_debug_thread_uid                    1 # Thread UID for executed instructions' debug output
-gpgpu_simd_model                       1 # 1 = post-dominator
-gpgpu_shader_core_pipeline              1536:32 # shader core pipeline config, i.e., {<nthread>:<warpsize>}
-gpgpu_tex_cache:l1  4:128:24,L:R:m:N:L,F:128:4,128:2 # per-shader L1 texture cache  (READ-ONLY) config  {<nsets>:<bsize>:<assoc>,<rep>:<wr>:<alloc>:<wr_alloc>,<mshr>:<N>:<merge>,<mq>:<rf>}
-gpgpu_const_cache:l1 64:64:2,L:R:f:N:L,A:2:32,4 # per-shader L1 constant memory cache  (READ-ONLY) config  {<nsets>:<bsize>:<assoc>,<rep>:<wr>:<alloc>:<wr_alloc>,<mshr>:<N>:<merge>,<mq>} 
-gpgpu_cache:il1     4:128:4,L:R:f:N:L,A:2:32,4 # shader L1 instruction cache config  {<nsets>:<bsize>:<assoc>,<rep>:<wr>:<alloc>:<wr_alloc>,<mshr>:<N>:<merge>,<mq>} 
-gpgpu_cache:dl1     32:128:4,L:L:m:N:H,A:32:8,8 # per-shader L1 data cache config  {<nsets>:<bsize>:<assoc>,<rep>:<wr>:<alloc>:<wr_alloc>,<mshr>:<N>:<merge>,<mq> | none}
-gpgpu_cache:dl1PrefL1                 none # per-shader L1 data cache config  {<nsets>:<bsize>:<assoc>,<rep>:<wr>:<alloc>:<wr_alloc>,<mshr>:<N>:<merge>,<mq> | none}
-gpgpu_cache:dl1PreShared                 none # per-shader L1 data cache config  {<nsets>:<bsize>:<assoc>,<rep>:<wr>:<alloc>:<wr_alloc>,<mshr>:<N>:<merge>,<mq> | none}
-gmem_skip_L1D                          0 # global memory access skip L1D cache (implements -Xptxas -dlcm=cg, default=no skip)
-gpgpu_perfect_mem                      0 # enable perfect memory mode (no cache miss)
-n_regfile_gating_group                    4 # group of lanes that should be read/written together)
-gpgpu_clock_gated_reg_file                    0 # enable clock gated reg file for power calculations
-gpgpu_clock_gated_lanes                    0 # enable clock gated lanes for power calculations
-gpgpu_shader_registers                32768 # Number of registers per shader core. Limits number of concurrent CTAs. (default 8192)
-gpgpu_shader_cta                       8 # Maximum number of concurrent CTAs in shader (default 8)
-gpgpu_num_cta_barriers                   16 # Maximum number of named barriers per CTA (default 16)
-gpgpu_n_clusters                      15 # number of processing clusters
-gpgpu_n_cores_per_cluster                    1 # number of simd cores per cluster
-gpgpu_n_cluster_ejection_buffer_size                    8 # number of packets in ejection buffer
-gpgpu_n_ldst_response_buffer_size                    2 # number of response packets in ld/st unit ejection buffer
-gpgpu_shmem_size                   16384 # Size of shared memory per shader core (default 16kB)
-gpgpu_shmem_size                   49152 # Size of shared memory per shader core (default 16kB)
-gpgpu_shmem_size_PrefL1                16384 # Size of shared memory per shader core (default 16kB)
-gpgpu_shmem_size_PrefShared                16384 # Size of shared memory per shader core (default 16kB)
-gpgpu_shmem_num_banks                   32 # Number of banks in the shared memory in each shader core (default 16)
-gpgpu_shmem_limited_broadcast                    0 # Limit shared memory to do one broadcast per cycle (default on)
-gpgpu_shmem_warp_parts                    1 # Number of portions a warp is divided into for shared memory bank conflict check 
-gpgpu_warpdistro_shader                   -1 # Specify which shader core to collect the warp size distribution from
-gpgpu_warp_issue_shader                    0 # Specify which shader core to collect the warp issue distribution from
-gpgpu_local_mem_map                    1 # Mapping from local memory space address to simulated GPU physical address space (default = enabled)
-gpgpu_num_reg_banks                   16 # Number of register banks (default = 8)
-gpgpu_reg_bank_use_warp_id                    0 # Use warp ID in mapping registers to banks (default = off)
-gpgpu_operand_collector_num_units_sp                    6 # number of collector units (default = 4)
-gpgpu_operand_collector_num_units_sfu                    8 # number of collector units (default = 4)
-gpgpu_operand_collector_num_units_mem                    2 # number of collector units (default = 2)
-gpgpu_operand_collector_num_units_gen                    0 # number of collector units (default = 0)
-gpgpu_operand_collector_num_in_ports_sp                    2 # number of collector unit in ports (default = 1)
-gpgpu_operand_collector_num_in_ports_sfu                    1 # number of collector unit in ports (default = 1)
-gpgpu_operand_collector_num_in_ports_mem                    1 # number of collector unit in ports (default = 1)
-gpgpu_operand_collector_num_in_ports_gen                    0 # number of collector unit in ports (default = 0)
-gpgpu_operand_collector_num_out_ports_sp                    2 # number of collector unit in ports (default = 1)
-gpgpu_operand_collector_num_out_ports_sfu                    1 # number of collector unit in ports (default = 1)
-gpgpu_operand_collector_num_out_ports_mem                    1 # number of collector unit in ports (default = 1)
-gpgpu_operand_collector_num_out_ports_gen                    0 # number of collector unit in ports (default = 0)
-gpgpu_coalesce_arch                   13 # Coalescing arch (default = 13, anything else is off for now)
-gpgpu_num_sched_per_core                    2 # Number of warp schedulers per core
-gpgpu_max_insn_issue_per_warp                    1 # Max number of instructions that can be issued per warp in one cycle by scheduler
-gpgpu_simt_core_sim_order                    1 # Select the simulation order of cores in a cluster (0=Fix, 1=Round-Robin)
-gpgpu_pipeline_widths        2,1,1,2,1,1,2 # Pipeline widths ID_OC_SP,ID_OC_SFU,ID_OC_MEM,OC_EX_SP,OC_EX_SFU,OC_EX_MEM,EX_WB
-gpgpu_num_sp_units                     2 # Number of SP units (default=1)
-gpgpu_num_sfu_units                    1 # Number of SF units (default=1)
-gpgpu_num_mem_units                    1 # Number if ldst units (default=1) WARNING: not hooked up to anything
-gpgpu_scheduler                      gto # Scheduler configuration: < lrr | gto | two_level_active > If two_level_active:<num_active_warps>:<inner_prioritization>:<outer_prioritization>For complete list of prioritization values see shader.h enum scheduler_prioritization_typeDefault: gto
-gpgpu_dram_scheduler                    1 # 0 = fifo, 1 = FR-FCFS (defaul)
-gpgpu_dram_partition_queues              8:8:8:8 # i2$:$2d:d2$:$2i
-l2_ideal                               0 # Use a ideal L2 cache that always hit
-gpgpu_cache:dl2     64:128:8,L:B:m:W:L,A:32:4,4:0,32 # unified banked L2 data cache config  {<nsets>:<bsize>:<assoc>,<rep>:<wr>:<alloc>:<wr_alloc>,<mshr>:<N>:<merge>,<mq>}
-gpgpu_cache:dl2_texture_only                    0 # L2 cache used for texture only
-gpgpu_n_mem                            6 # number of memory modules (e.g. memory controllers) in gpu
-gpgpu_n_sub_partition_per_mchannel                    2 # number of memory subpartition in each memory module
-gpgpu_n_mem_per_ctrlr                    2 # number of memory chips per memory controller
-gpgpu_memlatency_stat                   14 # track and display latency statistics 0x2 enables MC, 0x4 enables queue logs
-gpgpu_frfcfs_dram_sched_queue_size                   16 # 0 = unlimited (default); # entries per chip
-gpgpu_dram_return_queue_size                  116 # 0 = unlimited (default); # entries per chip
-gpgpu_dram_buswidth                    4 # default = 4 bytes (8 bytes per cycle at DDR)
-gpgpu_dram_burst_length                   16 # Burst length of each DRAM request (default = 4 data bus cycle)
-dram_data_command_freq_ratio                    4 # Frequency ratio between DRAM data bus and command bus (default = 2 times, i.e. DDR)
-gpgpu_dram_timing_opt nbk=16:CCD=2:RRD=6:RCD=12:RAS=28:RP=12:RC=40: CL=12:WL=4:CDLR=5:WR=12:nbkgrp=4:CCDL=3:RTPL=2 # DRAM timing parameters = {nbk:tCCD:tRRD:tRCD:tRAS:tRP:tRC:CL:WL:tCDLR:tWR:nbkgrp:tCCDL:tRTPL}
-rop_latency                          120 # ROP queue latency (default 85)
-dram_latency                         100 # DRAM latency (default 30)
-gpgpu_mem_addr_mapping dramid@8;00000000.00000000.00000000.00000000.0000RRRR.RRRRRRRR.BBBCCCCB.CCSSSSSS # mapping memory address to dram model {dramid@<start bit>;<memory address map>}
-gpgpu_mem_addr_test                    0 # run sweep test to check address mapping for aliased address
-gpgpu_mem_address_mask                    1 # 0 = old addressing mask, 1 = new addressing mask, 2 = new add. mask + flipped bank sel and chip sel bits
-gpuwattch_xml_file  gpuwattch_gtx480.xml # GPUWattch XML file
-power_simulation_enabled                    0 # Turn on power simulator (1=On, 0=Off)
-power_per_cycle_dump                    0 # Dump detailed power output each cycle
-power_trace_enabled                    0 # produce a file for the power trace (1=On, 0=Off)
-power_trace_zlevel                     6 # Compression level of the power trace output log (0=no comp, 9=highest)
-steady_power_levels_enabled                    0 # produce a file for the steady power levels (1=On, 0=Off)
-steady_state_definition                  8:4 # allowed deviation:number of samples
-gpgpu_max_cycle                        0 # terminates gpu simulation early (0 = no limit)
-gpgpu_max_insn                         0 # terminates gpu simulation early (0 = no limit)
-gpgpu_max_cta                          0 # terminates gpu simulation early (0 = no limit)
-gpgpu_runtime_stat                   500 # display runtime statistics such as dram utilization {<freq>:<flag>}
-liveness_message_freq                    1 # Minimum number of seconds between simulation liveness messages (0 = always print)
-gpgpu_flush_l1_cache                    0 # Flush L1 cache at the end of each kernel call
-gpgpu_flush_l2_cache                    0 # Flush L2 cache at the end of each kernel call
-gpgpu_deadlock_detect                    1 # Stop the simulation at deadlock (1=on (default), 0=off)
-gpgpu_ptx_instruction_classification                    0 # if enabled will classify ptx instruction types per kernel (Max 255 kernels now)
-gpgpu_ptx_sim_mode                     0 # Select between Performance (default) or Functional simulation (1)
-gpgpu_clock_domains 700.0:700.0:700.0:924.0 # Clock Domain Frequencies in MhZ {<Core Clock>:<ICNT Clock>:<L2 Clock>:<DRAM Clock>}
-gpgpu_max_concurrent_kernel                    8 # maximum kernels that can run concurrently on GPU
-gpgpu_cflog_interval                    0 # Interval between each snapshot in control flow logger
-visualizer_enabled                     0 # Turn on visualizer output (1=On, 0=Off)
-visualizer_outputfile                 NULL # Specifies the output log file for visualizer
-visualizer_zlevel                      6 # Compression level of the visualizer output log (0=no comp, 9=highest)
-trace_enabled                          0 # Turn on traces
-trace_components                    none # comma seperated list of traces to enable. Complete list found in trace_streams.tup. Default none
-trace_sampling_core                    0 # The core which is printed using CORE_DPRINTF. Default 0
-trace_sampling_memory_partition                   -1 # The memory partition which is printed using MEMPART_DPRINTF. Default -1 (i.e. all)
-enable_ptx_file_line_stats                    1 # Turn on PTX source line statistic profiling. (1 = On)
-ptx_line_stats_filename gpgpu_inst_stats.txt # Output file for PTX source line statistics.
-save_embedded_ptx                      0 # saves ptx files embedded in binary as <n>.ptx
-keep                                   0 # keep intermediate files created by GPGPU-Sim when interfacing with external programs
-gpgpu_ptx_save_converted_ptxplus                    0 # Saved converted ptxplus to a file
-ptx_opcode_latency_int         4,13,4,5,145 # Opcode latencies for integers <ADD,MAX,MUL,MAD,DIV>Default 1,1,19,25,145
-ptx_opcode_latency_fp          4,13,4,5,39 # Opcode latencies for single precision floating points <ADD,MAX,MUL,MAD,DIV>Default 1,1,1,1,30
-ptx_opcode_latency_dp         8,19,8,8,330 # Opcode latencies for double precision floating points <ADD,MAX,MUL,MAD,DIV>Default 8,8,8,8,335
-ptx_opcode_initiation_int            1,2,2,1,8 # Opcode initiation intervals for integers <ADD,MAX,MUL,MAD,DIV>Default 1,1,4,4,32
-ptx_opcode_initiation_fp            1,2,1,1,4 # Opcode initiation intervals for single precision floating points <ADD,MAX,MUL,MAD,DIV>Default 1,1,1,1,5
-ptx_opcode_initiation_dp         8,16,8,8,130 # Opcode initiation intervals for double precision floating points <ADD,MAX,MUL,MAD,DIV>Default 8,8,8,8,130
DRAM Timing Options:
nbk                                    16 # number of banks
CCD                                     2 # column to column delay
RRD                                     6 # minimal delay between activation of rows in different banks
RCD                                    12 # row to column delay
RAS                                    28 # time needed to activate row
RP                                     12 # time needed to precharge (deactivate) row
RC                                     40 # row cycle time
CDLR                                    5 # switching from write to read (changes tWTR)
WR                                     12 # last data-in to row precharge
CL                                     12 # CAS latency
WL                                      4 # Write latency
nbkgrp                                  4 # number of bank groups
CCDL                                    3 # column to column delay between accesses to different bank groups
RTPL                                    2 # read to precharge delay between accesses to different bank groups
Total number of memory sub partition = 12
addr_dec_mask[CHIP]  = 0000000000000000 	high:64 low:0
addr_dec_mask[BK]    = 000000000000e100 	high:16 low:8
addr_dec_mask[ROW]   = 000000000fff0000 	high:28 low:16
addr_dec_mask[COL]   = 0000000000001eff 	high:13 low:0
addr_dec_mask[BURST] = 000000000000003f 	high:6 low:0
sub_partition_id_mask = 0000000000000100
GPGPU-Sim uArch: clock freqs: 700000000.000000:700000000.000000:700000000.000000:924000000.000000
GPGPU-Sim uArch: clock periods: 0.00000000142857142857:0.00000000142857142857:0.00000000142857142857:0.00000000108225108225
*** Initializing Memory Statistics ***
GPGPU-Sim uArch: interconnect node map (shaderID+MemID to icntID)
GPGPU-Sim uArch: Memory nodes ID start from index: 15
GPGPU-Sim uArch:    0   1   2   3   4
GPGPU-Sim uArch:    5   6   7   8   9
GPGPU-Sim uArch:   10  11  12  13  14
GPGPU-Sim uArch:   15  16  17  18  19
GPGPU-Sim uArch:   20  21  22  23  24
GPGPU-Sim uArch:   25  26
GPGPU-Sim uArch: interconnect node reverse map (icntID to shaderID+MemID)
GPGPU-Sim uArch: Memory nodes start from ID: 15
GPGPU-Sim uArch:    0   1   2   3   4
GPGPU-Sim uArch:    5   6   7   8   9
GPGPU-Sim uArch:   10  11  12  13  14
GPGPU-Sim uArch:   15  16  17  18  19
GPGPU-Sim uArch:   20  21  22  23  24
GPGPU-Sim uArch:   25  26
c498d9f32ab5dd92351405d48e0f6df7  /sciclone/data20/adwait/applications/benchmarks/CUDA/BFS/gpgpu_ptx_sim__BFS
GPGPU-Sim uArch: performance model initialization complete.
GPGPU-Sim PTX: __cudaRegisterFatBinary, fat_cubin_handle = 1, filename=bfs.cu
self exe links to: /sciclone/data20/adwait/applications/benchmarks/CUDA/BFS/gpgpu_ptx_sim__BFS
Running md5sum using "md5sum /sciclone/data20/adwait/applications/benchmarks/CUDA/BFS/gpgpu_ptx_sim__BFS "
Parsing file _cuobjdump_complete_output_xejNEf
######### cuobjdump parser ########
## Adding new section ELF
Adding arch: sm_20
Adding identifier: bfs.cu
## Adding new section PTX
Adding ptx filename: _cuobjdump_1.ptx
Adding arch: sm_20
Adding identifier: bfs.cu
Done parsing!!!
GPGPU-Sim PTX: __cudaRegisterFunction _Z6KernelP4NodePiPbS2_S1_S2_i : hostFun 0x0x405636, fat_cubin_handle = 1
GPGPU-Sim PTX: instruction assembly for function '_Z6KernelP4NodePiPbS2_S1_S2_i'...   done.
GPGPU-Sim PTX: finding reconvergence points for '_Z6KernelP4NodePiPbS2_S1_S2_i'...
GPGPU-Sim PTX: Finding dominators for '_Z6KernelP4NodePiPbS2_S1_S2_i'...
GPGPU-Sim PTX: Finding immediate dominators for '_Z6KernelP4NodePiPbS2_S1_S2_i'...
GPGPU-Sim PTX: Finding postdominators for '_Z6KernelP4NodePiPbS2_S1_S2_i'...
GPGPU-Sim PTX: Finding immediate postdominators for '_Z6KernelP4NodePiPbS2_S1_S2_i'...
GPGPU-Sim PTX: pre-decoding instructions for '_Z6KernelP4NodePiPbS2_S1_S2_i'...
GPGPU-Sim PTX: reconvergence points for _Z6KernelP4NodePiPbS2_S1_S2_i...
GPGPU-Sim PTX:  1 (potential) branch divergence @  PC=0x030 (_1.ptx:72) @%p1 bra $Lt_0_5122;
GPGPU-Sim PTX:    immediate post dominator      @  PC=0x1e8 (_1.ptx:141) exit;
GPGPU-Sim PTX:  2 (potential) branch divergence @  PC=0x068 (_1.ptx:79) @%p2 bra $Lt_0_5122;
GPGPU-Sim PTX:    immediate post dominator      @  PC=0x1e8 (_1.ptx:141) exit;
GPGPU-Sim PTX:  3 (potential) branch divergence @  PC=0x0e0 (_1.ptx:97) @%p3 bra $Lt_0_5122;
GPGPU-Sim PTX:    immediate post dominator      @  PC=0x1e8 (_1.ptx:141) exit;
GPGPU-Sim PTX:  4 (potential) branch divergence @  PC=0x138 (_1.ptx:111) @%p4 bra $Lt_0_4354;
GPGPU-Sim PTX:    immediate post dominator      @  PC=0x1c8 (_1.ptx:134) add.s32 %r11, %r11, 1;
GPGPU-Sim PTX:  5 (potential) branch divergence @  PC=0x1e0 (_1.ptx:137) @%p5 bra $Lt_0_4098;
GPGPU-Sim PTX:    immediate post dominator      @  PC=0x1e8 (_1.ptx:141) exit;
GPGPU-Sim PTX: ... end of reconvergence points for _Z6KernelP4NodePiPbS2_S1_S2_i
GPGPU-Sim PTX: ... done pre-decoding instructions for '_Z6KernelP4NodePiPbS2_S1_S2_i'.
GPGPU-Sim PTX: finished parsing EMBEDDED .ptx file _1.ptx
Adding _cuobjdump_1.ptx with cubin handle 1
GPGPU-Sim PTX: extracting embedded .ptx to temporary file "_ptx_R1Svih"
Running: cat _ptx_R1Svih | sed 's/.version 1.5/.version 1.4/' | sed 's/, texmode_independent//' | sed 's/\(\.extern \.const\[1\] .b8 \w\+\)\[\]/\1\[1\]/' | sed 's/const\[.\]/const\[0\]/g' > _ptx2_91n3Kj
GPGPU-Sim PTX: generating ptxinfo using "$CUDA_INSTALL_PATH/bin/ptxas --gpu-name=sm_20 -v _ptx2_91n3Kj --output-file  /dev/null 2> _ptx_R1Svihinfo"
GPGPU-Sim PTX: Kernel '_Z6KernelP4NodePiPbS2_S1_S2_i' : regs=18, lmem=0, smem=0, cmem=84
GPGPU-Sim PTX: removing ptxinfo using "rm -f _ptx_R1Svih _ptx2_91n3Kj _ptx_R1Svihinfo"
GPGPU-Sim PTX: loading globals with explicit initializers... 
GPGPU-Sim PTX: finished loading globals (0 bytes total).
GPGPU-Sim PTX: loading constants with explicit initializers...  done.
Reading File
Input file: ./data/graph65536.txt
Read File
Copied Everything to GPU memory

GPGPU-Sim PTX: cudaLaunch for 0x0x405636 (mode=performance simulation) on stream 0
GPGPU-Sim PTX: pushing kernel '_Z6KernelP4NodePiPbS2_S1_S2_i' to stream 0, gridDim= (256,1,1) blockDim = (256,1,1) 
kernel '_Z6KernelP4NodePiPbS2_S1_S2_i' transfer to GPU hardware scheduler
GPGPU-Sim uArch: Shader 1 bind to kernel 1 '_Z6KernelP4NodePiPbS2_S1_S2_i'
GPGPU-Sim uArch: CTA/core = 6, limited by: threads regs
GPGPU-Sim uArch: core:  1, cta: 0 initialized @(1,0)
GPGPU-Sim uArch: Shader 2 bind to kernel 1 '_Z6KernelP4NodePiPbS2_S1_S2_i'
GPGPU-Sim uArch: core:  2, cta: 0 initialized @(1,0)
GPGPU-Sim uArch: Shader 3 bind to kernel 1 '_Z6KernelP4NodePiPbS2_S1_S2_i'
GPGPU-Sim uArch: core:  3, cta: 0 initialized @(1,0)
GPGPU-Sim uArch: Shader 4 bind to kernel 1 '_Z6KernelP4NodePiPbS2_S1_S2_i'
GPGPU-Sim uArch: core:  4, cta: 0 initialized @(1,0)
GPGPU-Sim uArch: Shader 5 bind to kernel 1 '_Z6KernelP4NodePiPbS2_S1_S2_i'
GPGPU-Sim uArch: core:  5, cta: 0 initialized @(1,0)
GPGPU-Sim uArch: Shader 6 bind to kernel 1 '_Z6KernelP4NodePiPbS2_S1_S2_i'
GPGPU-Sim uArch: core:  6, cta: 0 initialized @(1,0)
GPGPU-Sim uArch: Shader 7 bind to kernel 1 '_Z6KernelP4NodePiPbS2_S1_S2_i'
GPGPU-Sim uArch: core:  7, cta: 0 initialized @(1,0)
GPGPU-Sim uArch: Shader 8 bind to kernel 1 '_Z6KernelP4NodePiPbS2_S1_S2_i'
GPGPU-Sim uArch: core:  8, cta: 0 initialized @(1,0)
GPGPU-Sim uArch: Shader 9 bind to kernel 1 '_Z6KernelP4NodePiPbS2_S1_S2_i'
GPGPU-Sim uArch: core:  9, cta: 0 initialized @(1,0)
GPGPU-Sim uArch: Shader 10 bind to kernel 1 '_Z6KernelP4NodePiPbS2_S1_S2_i'
GPGPU-Sim uArch: core: 10, cta: 0 initialized @(1,0)
GPGPU-Sim uArch: Shader 11 bind to kernel 1 '_Z6KernelP4NodePiPbS2_S1_S2_i'
GPGPU-Sim uArch: core: 11, cta: 0 initialized @(1,0)
GPGPU-Sim uArch: Shader 12 bind to kernel 1 '_Z6KernelP4NodePiPbS2_S1_S2_i'
GPGPU-Sim uArch: core: 12, cta: 0 initialized @(1,0)
GPGPU-Sim uArch: Shader 13 bind to kernel 1 '_Z6KernelP4NodePiPbS2_S1_S2_i'
GPGPU-Sim uArch: core: 13, cta: 0 initialized @(1,0)
GPGPU-Sim uArch: Shader 14 bind to kernel 1 '_Z6KernelP4NodePiPbS2_S1_S2_i'
GPGPU-Sim uArch: core: 14, cta: 0 initialized @(1,0)
GPGPU-Sim uArch: Shader 0 bind to kernel 1 '_Z6KernelP4NodePiPbS2_S1_S2_i'
GPGPU-Sim uArch: core:  0, cta: 0 initialized @(1,0)
GPGPU-Sim uArch: core:  1, cta: 1 initialized @(2,0)
GPGPU-Sim uArch: core:  2, cta: 1 initialized @(2,0)
GPGPU-Sim uArch: core:  3, cta: 1 initialized @(2,0)
GPGPU-Sim uArch: core:  4, cta: 1 initialized @(2,0)
GPGPU-Sim uArch: core:  5, cta: 1 initialized @(2,0)
GPGPU-Sim uArch: core:  6, cta: 1 initialized @(2,0)
GPGPU-Sim uArch: core:  7, cta: 1 initialized @(2,0)
GPGPU-Sim uArch: core:  8, cta: 1 initialized @(2,0)
GPGPU-Sim uArch: core:  9, cta: 1 initialized @(2,0)
GPGPU-Sim uArch: core: 10, cta: 1 initialized @(2,0)
GPGPU-Sim uArch: core: 11, cta: 1 initialized @(2,0)
GPGPU-Sim uArch: core: 12, cta: 1 initialized @(2,0)
GPGPU-Sim uArch: core: 13, cta: 1 initialized @(2,0)
GPGPU-Sim uArch: core: 14, cta: 1 initialized @(2,0)
GPGPU-Sim uArch: core:  0, cta: 1 initialized @(2,0)
GPGPU-Sim uArch: core:  1, cta: 2 initialized @(3,0)
GPGPU-Sim uArch: core:  2, cta: 2 initialized @(3,0)
GPGPU-Sim uArch: core:  3, cta: 2 initialized @(3,0)
GPGPU-Sim uArch: core:  4, cta: 2 initialized @(3,0)
GPGPU-Sim uArch: core:  5, cta: 2 initialized @(3,0)
GPGPU-Sim uArch: core:  6, cta: 2 initialized @(3,0)
GPGPU-Sim uArch: core:  7, cta: 2 initialized @(3,0)
GPGPU-Sim uArch: core:  8, cta: 2 initialized @(3,0)
GPGPU-Sim uArch: core:  9, cta: 2 initialized @(3,0)
GPGPU-Sim uArch: core: 10, cta: 2 initialized @(3,0)
GPGPU-Sim uArch: core: 11, cta: 2 initialized @(3,0)
GPGPU-Sim uArch: core: 12, cta: 2 initialized @(3,0)
GPGPU-Sim uArch: core: 13, cta: 2 initialized @(3,0)
GPGPU-Sim uArch: core: 14, cta: 2 initialized @(3,0)
GPGPU-Sim uArch: core:  0, cta: 2 initialized @(3,0)
GPGPU-Sim uArch: core:  1, cta: 3 initialized @(4,0)
GPGPU-Sim uArch: core:  2, cta: 3 initialized @(4,0)
GPGPU-Sim uArch: core:  3, cta: 3 initialized @(4,0)
GPGPU-Sim uArch: core:  4, cta: 3 initialized @(4,0)
GPGPU-Sim uArch: core:  5, cta: 3 initialized @(4,0)
GPGPU-Sim uArch: core:  6, cta: 3 initialized @(4,0)
GPGPU-Sim uArch: core:  7, cta: 3 initialized @(4,0)
GPGPU-Sim uArch: core:  8, cta: 3 initialized @(4,0)
GPGPU-Sim uArch: core:  9, cta: 3 initialized @(4,0)
GPGPU-Sim uArch: core: 10, cta: 3 initialized @(4,0)
GPGPU-Sim uArch: core: 11, cta: 3 initialized @(4,0)
GPGPU-Sim uArch: core: 12, cta: 3 initialized @(4,0)
GPGPU-Sim uArch: core: 13, cta: 3 initialized @(4,0)
GPGPU-Sim uArch: core: 14, cta: 3 initialized @(4,0)
GPGPU-Sim uArch: core:  0, cta: 3 initialized @(4,0)
GPGPU-Sim uArch: core:  1, cta: 4 initialized @(5,0)
GPGPU-Sim uArch: core:  2, cta: 4 initialized @(5,0)
GPGPU-Sim uArch: core:  3, cta: 4 initialized @(5,0)
GPGPU-Sim uArch: core:  4, cta: 4 initialized @(5,0)
GPGPU-Sim uArch: core:  5, cta: 4 initialized @(5,0)
GPGPU-Sim uArch: core:  6, cta: 4 initialized @(5,0)
GPGPU-Sim uArch: core:  7, cta: 4 initialized @(5,0)
GPGPU-Sim uArch: core:  8, cta: 4 initialized @(5,0)
GPGPU-Sim uArch: core:  9, cta: 4 initialized @(5,0)
GPGPU-Sim uArch: core: 10, cta: 4 initialized @(5,0)
GPGPU-Sim uArch: core: 11, cta: 4 initialized @(5,0)
GPGPU-Sim uArch: core: 12, cta: 4 initialized @(5,0)
GPGPU-Sim uArch: core: 13, cta: 4 initialized @(5,0)
GPGPU-Sim uArch: core: 14, cta: 4 initialized @(5,0)
GPGPU-Sim uArch: core:  0, cta: 4 initialized @(5,0)
GPGPU-Sim uArch: core:  1, cta: 5 initialized @(6,0)
GPGPU-Sim uArch: core:  2, cta: 5 initialized @(6,0)
GPGPU-Sim uArch: core:  3, cta: 5 initialized @(6,0)
GPGPU-Sim uArch: core:  4, cta: 5 initialized @(6,0)
GPGPU-Sim uArch: core:  5, cta: 5 initialized @(6,0)
GPGPU-Sim uArch: core:  6, cta: 5 initialized @(6,0)
GPGPU-Sim uArch: core:  7, cta: 5 initialized @(6,0)
GPGPU-Sim uArch: core:  8, cta: 5 initialized @(6,0)
GPGPU-Sim uArch: core:  9, cta: 5 initialized @(6,0)
GPGPU-Sim uArch: core: 10, cta: 5 initialized @(6,0)
GPGPU-Sim uArch: core: 11, cta: 5 initialized @(6,0)
GPGPU-Sim uArch: core: 12, cta: 5 initialized @(6,0)
GPGPU-Sim uArch: core: 13, cta: 5 initialized @(6,0)
GPGPU-Sim uArch: core: 14, cta: 5 initialized @(6,0)
GPGPU-Sim uArch: core:  0, cta: 5 initialized @(6,0)
GPGPU-Sim PTX: 100000 instructions simulated : ctaid=(68,0,0) tid=(63,0,0)
GPGPU-Sim uArch: cycles simulated: 500  inst.: 92160 (ipc=184.3) sim_rate=46080 (inst/sec) elapsed = 0:0:00:02 / Wed Mar  2 01:16:19 2016
GPGPU-Sim PTX: 200000 instructions simulated : ctaid=(53,0,0) tid=(95,0,0)
GPGPU-Sim PTX: 300000 instructions simulated : ctaid=(47,0,0) tid=(157,0,0)
GPGPU-Sim uArch: Shader 3 finished CTA #0 (1248,0), 5 CTAs running
GPGPU-Sim uArch: Shader 3 finished CTA #1 (1248,0), 4 CTAs running
GPGPU-Sim uArch: Shader 3 finished CTA #2 (1248,0), 3 CTAs running
GPGPU-Sim uArch: core:  3, cta: 0 initialized @(1249,0)
GPGPU-Sim uArch: core:  3, cta: 1 initialized @(1250,0)
GPGPU-Sim uArch: core:  3, cta: 2 initialized @(1251,0)
GPGPU-Sim uArch: Shader 0 finished CTA #0 (1259,0), 5 CTAs running
GPGPU-Sim uArch: Shader 0 finished CTA #1 (1259,0), 4 CTAs running
GPGPU-Sim uArch: Shader 0 finished CTA #2 (1259,0), 3 CTAs running
GPGPU-Sim uArch: core:  0, cta: 0 initialized @(1260,0)
GPGPU-Sim uArch: Shader 4 finished CTA #0 (1260,0), 5 CTAs running
GPGPU-Sim uArch: Shader 4 finished CTA #1 (1260,0), 4 CTAs running
GPGPU-Sim uArch: Shader 4 finished CTA #2 (1260,0), 3 CTAs running
GPGPU-Sim uArch: core:  4, cta: 0 initialized @(1261,0)
GPGPU-Sim uArch: core:  0, cta: 1 initialized @(1261,0)
GPGPU-Sim uArch: core:  4, cta: 1 initialized @(1262,0)
GPGPU-Sim uArch: core:  0, cta: 2 initialized @(1262,0)
GPGPU-Sim uArch: core:  4, cta: 2 initialized @(1263,0)
GPGPU-Sim uArch: Shader 2 finished CTA #0 (1263,0), 5 CTAs running
GPGPU-Sim uArch: Shader 2 finished CTA #1 (1263,0), 4 CTAs running
GPGPU-Sim uArch: Shader 2 finished CTA #2 (1263,0), 3 CTAs running
GPGPU-Sim uArch: Shader 2 finished CTA #3 (1263,0), 2 CTAs running
GPGPU-Sim uArch: core:  2, cta: 0 initialized @(1264,0)
GPGPU-Sim uArch: core:  2, cta: 1 initialized @(1265,0)
GPGPU-Sim uArch: core:  2, cta: 2 initialized @(1266,0)
GPGPU-Sim uArch: core:  2, cta: 3 initialized @(1267,0)
GPGPU-Sim uArch: Shader 5 finished CTA #0 (1268,0), 5 CTAs running
GPGPU-Sim uArch: Shader 5 finished CTA #1 (1268,0), 4 CTAs running
GPGPU-Sim uArch: Shader 5 finished CTA #2 (1268,0), 3 CTAs running
GPGPU-Sim uArch: core:  5, cta: 0 initialized @(1269,0)
GPGPU-Sim uArch: core:  5, cta: 1 initialized @(1270,0)
GPGPU-Sim uArch: core:  5, cta: 2 initialized @(1271,0)
GPGPU-Sim uArch: Shader 6 finished CTA #0 (1280,0), 5 CTAs running
GPGPU-Sim uArch: Shader 6 finished CTA #1 (1280,0), 4 CTAs running
GPGPU-Sim uArch: core:  6, cta: 0 initialized @(1281,0)
GPGPU-Sim uArch: Shader 1 finished CTA #1 (1281,0), 5 CTAs running
GPGPU-Sim uArch: Shader 1 finished CTA #2 (1281,0), 4 CTAs running
GPGPU-Sim uArch: Shader 1 finished CTA #3 (1281,0), 3 CTAs running
GPGPU-Sim uArch: core:  1, cta: 1 initialized @(1282,0)
GPGPU-Sim uArch: core:  6, cta: 1 initialized @(1282,0)
GPGPU-Sim uArch: Shader 3 finished CTA #3 (1282,0), 5 CTAs running
GPGPU-Sim uArch: Shader 3 finished CTA #4 (1282,0), 4 CTAs running
GPGPU-Sim uArch: Shader 3 finished CTA #5 (1282,0), 3 CTAs running
GPGPU-Sim uArch: core:  1, cta: 2 initialized @(1283,0)
GPGPU-Sim uArch: core:  3, cta: 3 initialized @(1283,0)
GPGPU-Sim uArch: core:  1, cta: 3 initialized @(1284,0)
GPGPU-Sim uArch: core:  3, cta: 4 initialized @(1284,0)
GPGPU-Sim uArch: core:  3, cta: 5 initialized @(1285,0)
GPGPU-Sim uArch: Shader 7 finished CTA #0 (1290,0), 5 CTAs running
GPGPU-Sim uArch: Shader 7 finished CTA #1 (1290,0), 4 CTAs running
GPGPU-Sim uArch: Shader 7 finished CTA #2 (1290,0), 3 CTAs running
GPGPU-Sim uArch: core:  7, cta: 0 initialized @(1291,0)
GPGPU-Sim uArch: core:  7, cta: 1 initialized @(1292,0)
GPGPU-Sim uArch: core:  7, cta: 2 initialized @(1293,0)
GPGPU-Sim uArch: Shader 0 finished CTA #3 (1294,0), 5 CTAs running
GPGPU-Sim uArch: Shader 0 finished CTA #4 (1294,0), 4 CTAs running
GPGPU-Sim uArch: Shader 0 finished CTA #5 (1294,0), 3 CTAs running
GPGPU-Sim uArch: core:  0, cta: 3 initialized @(1295,0)
GPGPU-Sim uArch: Shader 9 finished CTA #0 (1295,0), 5 CTAs running
GPGPU-Sim uArch: Shader 9 finished CTA #1 (1295,0), 4 CTAs running
GPGPU-Sim uArch: Shader 9 finished CTA #2 (1295,0), 3 CTAs running
GPGPU-Sim uArch: core:  9, cta: 0 initialized @(1296,0)
GPGPU-Sim uArch: core:  0, cta: 4 initialized @(1296,0)
GPGPU-Sim uArch: Shader 2 finished CTA #4 (1296,0), 5 CTAs running
GPGPU-Sim uArch: Shader 2 finished CTA #5 (1296,0), 4 CTAs running
GPGPU-Sim uArch: core:  2, cta: 4 initialized @(1297,0)
GPGPU-Sim uArch: core:  9, cta: 1 initialized @(1297,0)
GPGPU-Sim uArch: core:  0, cta: 5 initialized @(1297,0)
GPGPU-Sim uArch: core:  2, cta: 5 initialized @(1298,0)
GPGPU-Sim uArch: core:  9, cta: 2 initialized @(1298,0)
GPGPU-Sim uArch: Shader 4 finished CTA #3 (1300,0), 5 CTAs running
GPGPU-Sim uArch: Shader 4 finished CTA #4 (1300,0), 4 CTAs running
GPGPU-Sim uArch: Shader 4 finished CTA #5 (1300,0), 3 CTAs running
GPGPU-Sim uArch: core:  4, cta: 3 initialized @(1301,0)
GPGPU-Sim uArch: core:  4, cta: 4 initialized @(1302,0)
GPGPU-Sim uArch: core:  4, cta: 5 initialized @(1303,0)
GPGPU-Sim uArch: Shader 5 finished CTA #3 (1306,0), 5 CTAs running
GPGPU-Sim uArch: Shader 5 finished CTA #4 (1306,0), 4 CTAs running
GPGPU-Sim uArch: Shader 5 finished CTA #5 (1306,0), 3 CTAs running
GPGPU-Sim uArch: Shader 13 finished CTA #0 (1306,0), 5 CTAs running
GPGPU-Sim uArch: Shader 13 finished CTA #1 (1306,0), 4 CTAs running
GPGPU-Sim uArch: Shader 13 finished CTA #2 (1306,0), 3 CTAs running
GPGPU-Sim uArch: core:  5, cta: 3 initialized @(1307,0)
GPGPU-Sim uArch: core: 13, cta: 0 initialized @(1307,0)
GPGPU-Sim uArch: core:  5, cta: 4 initialized @(1308,0)
GPGPU-Sim uArch: core: 13, cta: 1 initialized @(1308,0)
GPGPU-Sim uArch: core:  5, cta: 5 initialized @(1309,0)
GPGPU-Sim uArch: core: 13, cta: 2 initialized @(1309,0)
GPGPU-Sim uArch: Shader 6 finished CTA #2 (1310,0), 5 CTAs running
GPGPU-Sim uArch: Shader 6 finished CTA #3 (1310,0), 4 CTAs running
GPGPU-Sim uArch: Shader 6 finished CTA #4 (1310,0), 3 CTAs running
GPGPU-Sim uArch: Shader 6 finished CTA #5 (1310,0), 2 CTAs running
GPGPU-Sim uArch: Shader 8 finished CTA #0 (1310,0), 5 CTAs running
GPGPU-Sim uArch: Shader 8 finished CTA #1 (1310,0), 4 CTAs running
GPGPU-Sim uArch: Shader 8 finished CTA #2 (1310,0), 3 CTAs running
GPGPU-Sim uArch: core:  6, cta: 2 initialized @(1311,0)
GPGPU-Sim uArch: core:  8, cta: 0 initialized @(1311,0)
GPGPU-Sim uArch: core:  6, cta: 3 initialized @(1312,0)
GPGPU-Sim uArch: core:  8, cta: 1 initialized @(1312,0)
GPGPU-Sim uArch: Shader 8 finished CTA #4 (1312,0), 4 CTAs running
GPGPU-Sim uArch: Shader 10 finished CTA #0 (1312,0), 5 CTAs running
GPGPU-Sim uArch: Shader 10 finished CTA #1 (1312,0), 4 CTAs running
GPGPU-Sim uArch: Shader 10 finished CTA #2 (1312,0), 3 CTAs running
GPGPU-Sim uArch: core: 10, cta: 0 initialized @(1313,0)
GPGPU-Sim uArch: core:  6, cta: 4 initialized @(1313,0)
GPGPU-Sim uArch: core:  8, cta: 2 initialized @(1313,0)
GPGPU-Sim uArch: Shader 1 finished CTA #4 (1313,0), 5 CTAs running
GPGPU-Sim uArch: Shader 1 finished CTA #5 (1313,0), 4 CTAs running
GPGPU-Sim uArch: core: 10, cta: 1 initialized @(1314,0)
GPGPU-Sim uArch: core:  1, cta: 4 initialized @(1314,0)
GPGPU-Sim uArch: core:  6, cta: 5 initialized @(1314,0)
GPGPU-Sim uArch: core:  8, cta: 4 initialized @(1314,0)
GPGPU-Sim uArch: core: 10, cta: 2 initialized @(1315,0)
GPGPU-Sim uArch: core:  1, cta: 5 initialized @(1315,0)
GPGPU-Sim uArch: Shader 12 finished CTA #0 (1323,0), 5 CTAs running
GPGPU-Sim uArch: Shader 12 finished CTA #1 (1323,0), 4 CTAs running
GPGPU-Sim uArch: Shader 12 finished CTA #2 (1323,0), 3 CTAs running
GPGPU-Sim uArch: Shader 12 finished CTA #3 (1323,0), 2 CTAs running
GPGPU-Sim uArch: core: 12, cta: 0 initialized @(1324,0)
GPGPU-Sim uArch: Shader 7 finished CTA #3 (1324,0), 5 CTAs running
GPGPU-Sim uArch: Shader 7 finished CTA #4 (1324,0), 4 CTAs running
GPGPU-Sim uArch: Shader 7 finished CTA #5 (1324,0), 3 CTAs running
GPGPU-Sim uArch: core:  7, cta: 3 initialized @(1325,0)
GPGPU-Sim uArch: core: 12, cta: 1 initialized @(1325,0)
GPGPU-Sim uArch: core:  7, cta: 4 initialized @(1326,0)
GPGPU-Sim uArch: core: 12, cta: 2 initialized @(1326,0)
GPGPU-Sim uArch: Shader 14 finished CTA #0 (1326,0), 5 CTAs running
GPGPU-Sim uArch: Shader 14 finished CTA #1 (1326,0), 4 CTAs running
GPGPU-Sim uArch: Shader 14 finished CTA #2 (1326,0), 3 CTAs running
GPGPU-Sim uArch: core: 14, cta: 0 initialized @(1327,0)
GPGPU-Sim uArch: core:  7, cta: 5 initialized @(1327,0)
GPGPU-Sim uArch: core: 12, cta: 3 initialized @(1327,0)
GPGPU-Sim uArch: core: 14, cta: 1 initialized @(1328,0)
GPGPU-Sim uArch: core: 14, cta: 2 initialized @(1329,0)
GPGPU-Sim uArch: Shader 9 finished CTA #3 (1330,0), 5 CTAs running
GPGPU-Sim uArch: Shader 9 finished CTA #4 (1330,0), 4 CTAs running
GPGPU-Sim uArch: Shader 9 finished CTA #5 (1330,0), 3 CTAs running
GPGPU-Sim uArch: Shader 12 finished CTA #5 (1330,0), 5 CTAs running
GPGPU-Sim uArch: core:  9, cta: 3 initialized @(1331,0)
GPGPU-Sim uArch: core: 12, cta: 5 initialized @(1331,0)
GPGPU-Sim uArch: Shader 11 finished CTA #0 (1331,0), 5 CTAs running
GPGPU-Sim uArch: Shader 11 finished CTA #1 (1331,0), 4 CTAs running
GPGPU-Sim uArch: Shader 11 finished CTA #2 (1331,0), 3 CTAs running
GPGPU-Sim uArch: core:  9, cta: 4 initialized @(1332,0)
GPGPU-Sim uArch: core: 11, cta: 0 initialized @(1332,0)
GPGPU-Sim uArch: core:  9, cta: 5 initialized @(1333,0)
GPGPU-Sim uArch: core: 11, cta: 1 initialized @(1333,0)
GPGPU-Sim uArch: core: 11, cta: 2 initialized @(1334,0)
GPGPU-Sim uArch: Shader 8 finished CTA #3 (1336,0), 5 CTAs running
GPGPU-Sim uArch: core:  8, cta: 3 initialized @(1337,0)
GPGPU-Sim uArch: Shader 13 finished CTA #3 (1342,0), 5 CTAs running
GPGPU-Sim uArch: Shader 13 finished CTA #4 (1342,0), 4 CTAs running
GPGPU-Sim uArch: Shader 13 finished CTA #5 (1342,0), 3 CTAs running
GPGPU-Sim uArch: core: 13, cta: 3 initialized @(1343,0)
GPGPU-Sim uArch: core: 13, cta: 4 initialized @(1344,0)
GPGPU-Sim uArch: Shader 8 finished CTA #5 (1344,0), 5 CTAs running
GPGPU-Sim uArch: core:  8, cta: 5 initialized @(1345,0)
GPGPU-Sim uArch: core: 13, cta: 5 initialized @(1345,0)
GPGPU-Sim uArch: Shader 10 finished CTA #3 (1348,0), 5 CTAs running
GPGPU-Sim uArch: Shader 10 finished CTA #4 (1348,0), 4 CTAs running
GPGPU-Sim uArch: Shader 10 finished CTA #5 (1348,0), 3 CTAs running
GPGPU-Sim uArch: core: 10, cta: 3 initialized @(1349,0)
GPGPU-Sim uArch: core: 10, cta: 4 initialized @(1350,0)
GPGPU-Sim uArch: core: 10, cta: 5 initialized @(1351,0)
GPGPU-Sim uArch: Shader 14 finished CTA #3 (1360,0), 5 CTAs running
GPGPU-Sim uArch: Shader 14 finished CTA #4 (1360,0), 4 CTAs running
GPGPU-Sim uArch: Shader 14 finished CTA #5 (1360,0), 3 CTAs running
GPGPU-Sim uArch: core: 14, cta: 3 initialized @(1361,0)
GPGPU-Sim uArch: core: 14, cta: 4 initialized @(1362,0)
GPGPU-Sim uArch: Shader 12 finished CTA #4 (1362,0), 5 CTAs running
GPGPU-Sim uArch: core: 12, cta: 4 initialized @(1363,0)
GPGPU-Sim uArch: core: 14, cta: 5 initialized @(1363,0)
GPGPU-Sim uArch: Shader 11 finished CTA #3 (1366,0), 5 CTAs running
GPGPU-Sim uArch: Shader 11 finished CTA #4 (1366,0), 4 CTAs running
GPGPU-Sim uArch: Shader 11 finished CTA #5 (1366,0), 3 CTAs running
GPGPU-Sim PTX: 400000 instructions simulated : ctaid=(154,0,0) tid=(86,0,0)
GPGPU-Sim uArch: core: 11, cta: 3 initialized @(1367,0)
GPGPU-Sim uArch: core: 11, cta: 4 initialized @(1368,0)
GPGPU-Sim uArch: core: 11, cta: 5 initialized @(1369,0)
GPGPU-Sim PTX: 500000 instructions simulated : ctaid=(139,0,0) tid=(21,0,0)
GPGPU-Sim uArch: cycles simulated: 1500  inst.: 473448 (ipc=315.6) sim_rate=157816 (inst/sec) elapsed = 0:0:00:03 / Wed Mar  2 01:16:20 2016
GPGPU-Sim PTX: 600000 instructions simulated : ctaid=(167,0,0) tid=(149,0,0)
GPGPU-Sim uArch: Shader 1 finished CTA #1 (1741,0), 5 CTAs running
GPGPU-Sim uArch: Shader 3 finished CTA #0 (1741,0), 5 CTAs running
GPGPU-Sim uArch: core:  1, cta: 1 initialized @(1742,0)
GPGPU-Sim uArch: core:  3, cta: 0 initialized @(1742,0)
GPGPU-Sim uArch: Shader 2 finished CTA #0 (1747,0), 5 CTAs running
GPGPU-Sim uArch: core:  2, cta: 0 initialized @(1748,0)
GPGPU-Sim uArch: Shader 4 finished CTA #0 (1761,0), 5 CTAs running
GPGPU-Sim uArch: core:  4, cta: 0 initialized @(1762,0)
GPGPU-Sim uArch: Shader 0 finished CTA #1 (1770,0), 5 CTAs running
GPGPU-Sim uArch: core:  0, cta: 1 initialized @(1771,0)
GPGPU-Sim uArch: Shader 6 finished CTA #0 (1772,0), 5 CTAs running
GPGPU-Sim uArch: core:  6, cta: 0 initialized @(1773,0)
GPGPU-Sim uArch: Shader 0 finished CTA #0 (1777,0), 5 CTAs running
GPGPU-Sim uArch: core:  0, cta: 0 initialized @(1778,0)
GPGPU-Sim uArch: Shader 1 finished CTA #2 (1779,0), 5 CTAs running
GPGPU-Sim uArch: Shader 1 finished CTA #3 (1779,0), 4 CTAs running
GPGPU-Sim uArch: Shader 3 finished CTA #1 (1779,0), 5 CTAs running
GPGPU-Sim uArch: Shader 3 finished CTA #2 (1779,0), 4 CTAs running
GPGPU-Sim uArch: core:  1, cta: 2 initialized @(1780,0)
GPGPU-Sim uArch: core:  3, cta: 1 initialized @(1780,0)
GPGPU-Sim uArch: core:  1, cta: 3 initialized @(1781,0)
GPGPU-Sim uArch: core:  3, cta: 2 initialized @(1781,0)
GPGPU-Sim uArch: Shader 4 finished CTA #1 (1783,0), 5 CTAs running
GPGPU-Sim uArch: core:  4, cta: 1 initialized @(1784,0)
GPGPU-Sim uArch: Shader 0 finished CTA #2 (1785,0), 5 CTAs running
GPGPU-Sim uArch: core:  0, cta: 2 initialized @(1786,0)
GPGPU-Sim uArch: Shader 5 finished CTA #0 (1786,0), 5 CTAs running
GPGPU-Sim uArch: Shader 6 finished CTA #1 (1786,0), 5 CTAs running
GPGPU-Sim uArch: core:  5, cta: 0 initialized @(1787,0)
GPGPU-Sim uArch: core:  6, cta: 1 initialized @(1787,0)
GPGPU-Sim uArch: Shader 9 finished CTA #0 (1788,0), 5 CTAs running
GPGPU-Sim uArch: core:  9, cta: 0 initialized @(1789,0)
GPGPU-Sim uArch: Shader 2 finished CTA #1 (1797,0), 5 CTAs running
GPGPU-Sim uArch: Shader 2 finished CTA #2 (1797,0), 4 CTAs running
GPGPU-Sim uArch: core:  2, cta: 1 initialized @(1798,0)
GPGPU-Sim uArch: core:  2, cta: 2 initialized @(1799,0)
GPGPU-Sim uArch: Shader 5 finished CTA #1 (1802,0), 5 CTAs running
GPGPU-Sim uArch: Shader 5 finished CTA #2 (1802,0), 4 CTAs running
GPGPU-Sim uArch: core:  5, cta: 1 initialized @(1803,0)
GPGPU-Sim uArch: core:  5, cta: 2 initialized @(1804,0)
GPGPU-Sim uArch: Shader 8 finished CTA #0 (1804,0), 5 CTAs running
GPGPU-Sim uArch: core:  8, cta: 0 initialized @(1805,0)
GPGPU-Sim uArch: Shader 4 finished CTA #2 (1805,0), 5 CTAs running
GPGPU-Sim uArch: core:  4, cta: 2 initialized @(1806,0)
GPGPU-Sim uArch: Shader 7 finished CTA #0 (1810,0), 5 CTAs running
GPGPU-Sim uArch: Shader 13 finished CTA #0 (1810,0), 5 CTAs running
GPGPU-Sim uArch: core:  7, cta: 0 initialized @(1811,0)
GPGPU-Sim uArch: core: 13, cta: 0 initialized @(1811,0)
GPGPU-Sim uArch: Shader 10 finished CTA #0 (1819,0), 5 CTAs running
GPGPU-Sim uArch: core: 10, cta: 0 initialized @(1820,0)
GPGPU-Sim uArch: Shader 8 finished CTA #1 (1820,0), 5 CTAs running
GPGPU-Sim uArch: core:  8, cta: 1 initialized @(1821,0)
GPGPU-Sim uArch: Shader 12 finished CTA #0 (1823,0), 5 CTAs running
GPGPU-Sim uArch: core: 12, cta: 0 initialized @(1824,0)
GPGPU-Sim uArch: Shader 9 finished CTA #1 (1824,0), 5 CTAs running
GPGPU-Sim uArch: core:  9, cta: 1 initialized @(1825,0)
GPGPU-Sim uArch: Shader 2 finished CTA #3 (1825,0), 5 CTAs running
GPGPU-Sim uArch: core:  2, cta: 3 initialized @(1826,0)
GPGPU-Sim uArch: Shader 7 finished CTA #1 (1826,0), 5 CTAs running
GPGPU-Sim uArch: Shader 7 finished CTA #2 (1826,0), 4 CTAs running
GPGPU-Sim uArch: core:  7, cta: 1 initialized @(1827,0)
GPGPU-Sim uArch: core:  7, cta: 2 initialized @(1828,0)
GPGPU-Sim uArch: Shader 11 finished CTA #0 (1833,0), 5 CTAs running
GPGPU-Sim uArch: core: 11, cta: 0 initialized @(1834,0)
GPGPU-Sim uArch: Shader 9 finished CTA #2 (1837,0), 5 CTAs running
GPGPU-Sim uArch: core:  9, cta: 2 initialized @(1838,0)
GPGPU-Sim uArch: Shader 11 finished CTA #1 (1853,0), 5 CTAs running
GPGPU-Sim uArch: core: 11, cta: 1 initialized @(1854,0)
GPGPU-Sim uArch: Shader 13 finished CTA #1 (1854,0), 5 CTAs running
GPGPU-Sim uArch: Shader 13 finished CTA #2 (1854,0), 4 CTAs running
GPGPU-Sim uArch: core: 13, cta: 1 initialized @(1855,0)
GPGPU-Sim uArch: core: 13, cta: 2 initialized @(1856,0)
GPGPU-Sim PTX: 700000 instructions simulated : ctaid=(122,0,0) tid=(109,0,0)
GPGPU-Sim uArch: Shader 3 finished CTA #3 (1864,0), 5 CTAs running
GPGPU-Sim uArch: core:  3, cta: 3 initialized @(1865,0)
GPGPU-Sim uArch: Shader 12 finished CTA #2 (1871,0), 5 CTAs running
GPGPU-Sim uArch: core: 12, cta: 2 initialized @(1872,0)
GPGPU-Sim uArch: Shader 11 finished CTA #2 (1875,0), 5 CTAs running
GPGPU-Sim uArch: core: 11, cta: 2 initialized @(1876,0)
GPGPU-Sim uArch: Shader 1 finished CTA #4 (1878,0), 5 CTAs running
GPGPU-Sim uArch: core:  1, cta: 4 initialized @(1879,0)
GPGPU-Sim uArch: Shader 10 finished CTA #1 (1879,0), 5 CTAs running
GPGPU-Sim uArch: Shader 10 finished CTA #2 (1879,0), 4 CTAs running
GPGPU-Sim uArch: Shader 14 finished CTA #1 (1879,0), 5 CTAs running
GPGPU-Sim uArch: core: 10, cta: 1 initialized @(1880,0)
GPGPU-Sim uArch: core: 14, cta: 1 initialized @(1880,0)
GPGPU-Sim uArch: core: 10, cta: 2 initialized @(1881,0)
GPGPU-Sim uArch: Shader 8 finished CTA #2 (1882,0), 5 CTAs running
GPGPU-Sim uArch: core:  8, cta: 2 initialized @(1883,0)
GPGPU-Sim uArch: Shader 12 finished CTA #1 (1883,0), 5 CTAs running
GPGPU-Sim uArch: core: 12, cta: 1 initialized @(1884,0)
GPGPU-Sim uArch: Shader 8 finished CTA #4 (1886,0), 5 CTAs running
GPGPU-Sim uArch: core:  8, cta: 4 initialized @(1887,0)
GPGPU-Sim uArch: Shader 4 finished CTA #3 (1891,0), 5 CTAs running
GPGPU-Sim uArch: Shader 6 finished CTA #2 (1891,0), 5 CTAs running
GPGPU-Sim uArch: Shader 6 finished CTA #3 (1891,0), 4 CTAs running
GPGPU-Sim uArch: Shader 12 finished CTA #3 (1891,0), 5 CTAs running
GPGPU-Sim uArch: core: 12, cta: 3 initialized @(1892,0)
GPGPU-Sim uArch: core:  4, cta: 3 initialized @(1892,0)
GPGPU-Sim uArch: core:  6, cta: 2 initialized @(1892,0)
GPGPU-Sim uArch: Shader 14 finished CTA #0 (1892,0), 5 CTAs running
GPGPU-Sim uArch: core: 14, cta: 0 initialized @(1893,0)
GPGPU-Sim uArch: core:  6, cta: 3 initialized @(1893,0)
GPGPU-Sim uArch: Shader 14 finished CTA #2 (1900,0), 5 CTAs running
GPGPU-Sim uArch: core: 14, cta: 2 initialized @(1901,0)
GPGPU-Sim uArch: Shader 0 finished CTA #3 (1906,0), 5 CTAs running
GPGPU-Sim uArch: core:  0, cta: 3 initialized @(1907,0)
GPGPU-Sim uArch: Shader 10 finished CTA #3 (1915,0), 5 CTAs running
GPGPU-Sim uArch: core: 10, cta: 3 initialized @(1916,0)
GPGPU-Sim uArch: Shader 1 finished CTA #5 (1918,0), 5 CTAs running
GPGPU-Sim uArch: core:  1, cta: 5 initialized @(1919,0)
GPGPU-Sim uArch: Shader 7 finished CTA #3 (1920,0), 5 CTAs running
GPGPU-Sim uArch: core:  7, cta: 3 initialized @(1921,0)
GPGPU-Sim uArch: Shader 13 finished CTA #3 (1923,0), 5 CTAs running
GPGPU-Sim uArch: core: 13, cta: 3 initialized @(1924,0)
GPGPU-Sim uArch: Shader 14 finished CTA #3 (1928,0), 5 CTAs running
GPGPU-Sim uArch: core: 14, cta: 3 initialized @(1929,0)
GPGPU-Sim uArch: Shader 9 finished CTA #3 (1929,0), 5 CTAs running
GPGPU-Sim uArch: core:  9, cta: 3 initialized @(1930,0)
GPGPU-Sim uArch: Shader 5 finished CTA #4 (1930,0), 5 CTAs running
GPGPU-Sim uArch: core:  5, cta: 4 initialized @(1931,0)
GPGPU-Sim uArch: Shader 4 finished CTA #4 (1935,0), 5 CTAs running
GPGPU-Sim uArch: core:  4, cta: 4 initialized @(1936,0)
GPGPU-Sim uArch: Shader 6 finished CTA #4 (1936,0), 5 CTAs running
GPGPU-Sim uArch: core:  6, cta: 4 initialized @(1937,0)
GPGPU-Sim uArch: Shader 2 finished CTA #4 (1937,0), 5 CTAs running
GPGPU-Sim uArch: core:  2, cta: 4 initialized @(1938,0)
GPGPU-Sim uArch: Shader 0 finished CTA #4 (1950,0), 5 CTAs running
GPGPU-Sim uArch: Shader 0 finished CTA #5 (1950,0), 4 CTAs running
GPGPU-Sim uArch: Shader 3 finished CTA #4 (1950,0), 5 CTAs running
GPGPU-Sim uArch: Shader 3 finished CTA #5 (1950,0), 4 CTAs running
GPGPU-Sim uArch: core:  3, cta: 4 initialized @(1951,0)
GPGPU-Sim uArch: core:  0, cta: 4 initialized @(1951,0)
GPGPU-Sim uArch: core:  3, cta: 5 initialized @(1952,0)
GPGPU-Sim uArch: core:  0, cta: 5 initialized @(1952,0)
GPGPU-Sim uArch: Shader 5 finished CTA #3 (1962,0), 5 CTAs running
GPGPU-Sim uArch: core:  5, cta: 3 initialized @(1963,0)
GPGPU-Sim uArch: Shader 7 finished CTA #4 (1963,0), 5 CTAs running
GPGPU-Sim uArch: core:  7, cta: 4 initialized @(1964,0)
GPGPU-Sim uArch: Shader 13 finished CTA #4 (1964,0), 5 CTAs running
GPGPU-Sim uArch: core: 13, cta: 4 initialized @(1965,0)
GPGPU-Sim uArch: Shader 5 finished CTA #5 (1970,0), 5 CTAs running
GPGPU-Sim uArch: core:  5, cta: 5 initialized @(1971,0)
GPGPU-Sim uArch: Shader 9 finished CTA #4 (1973,0), 5 CTAs running
GPGPU-Sim uArch: Shader 11 finished CTA #3 (1973,0), 5 CTAs running
GPGPU-Sim uArch: core:  9, cta: 4 initialized @(1974,0)
GPGPU-Sim uArch: core: 11, cta: 3 initialized @(1974,0)
GPGPU-Sim uArch: Shader 4 finished CTA #5 (1980,0), 5 CTAs running
GPGPU-Sim uArch: core:  4, cta: 5 initialized @(1981,0)
GPGPU-Sim uArch: Shader 2 finished CTA #5 (1981,0), 5 CTAs running
GPGPU-Sim uArch: Shader 6 finished CTA #5 (1981,0), 5 CTAs running
GPGPU-Sim PTX: 800000 instructions simulated : ctaid=(236,0,0) tid=(75,0,0)
GPGPU-Sim uArch: core:  6, cta: 5 initialized @(1982,0)
GPGPU-Sim uArch: core:  2, cta: 5 initialized @(1982,0)
GPGPU-Sim uArch: Shader 8 finished CTA #3 (1993,0), 5 CTAs running
GPGPU-Sim uArch: core:  8, cta: 3 initialized @(1994,0)
GPGPU-Sim uArch: Shader 10 finished CTA #4 (1998,0), 5 CTAs running
GPGPU-Sim uArch: Shader 7 finished CTA #5 (2006,0), 5 CTAs running
GPGPU-Sim uArch: Shader 12 finished CTA #5 (2011,0), 5 CTAs running
GPGPU-Sim uArch: Shader 13 finished CTA #5 (2012,0), 5 CTAs running
GPGPU-Sim uArch: Shader 9 finished CTA #5 (2014,0), 5 CTAs running
GPGPU-Sim uArch: Shader 14 finished CTA #4 (2014,0), 5 CTAs running
GPGPU-Sim uArch: Shader 14 finished CTA #5 (2014,0), 4 CTAs running
GPGPU-Sim uArch: Shader 11 finished CTA #4 (2017,0), 5 CTAs running
GPGPU-Sim uArch: Shader 11 finished CTA #5 (2017,0), 4 CTAs running
GPGPU-Sim uArch: Shader 10 finished CTA #5 (2034,0), 4 CTAs running
GPGPU-Sim uArch: Shader 8 finished CTA #5 (2042,0), 5 CTAs running
GPGPU-Sim uArch: Shader 12 finished CTA #4 (2043,0), 4 CTAs running
GPGPU-Sim PTX: 900000 instructions simulated : ctaid=(237,0,0) tid=(203,0,0)
GPGPU-Sim uArch: Shader 1 finished CTA #1 (2177,0), 5 CTAs running
GPGPU-Sim uArch: Shader 6 finished CTA #0 (2200,0), 5 CTAs running
GPGPU-Sim uArch: Shader 4 finished CTA #0 (2202,0), 5 CTAs running
GPGPU-Sim uArch: Shader 2 finished CTA #0 (2203,0), 5 CTAs running
GPGPU-Sim uArch: Shader 3 finished CTA #0 (2209,0), 5 CTAs running
GPGPU-Sim uArch: Shader 1 finished CTA #2 (2220,0), 4 CTAs running
GPGPU-Sim uArch: Shader 0 finished CTA #1 (2226,0), 5 CTAs running
GPGPU-Sim uArch: Shader 5 finished CTA #0 (2233,0), 5 CTAs running
GPGPU-Sim uArch: Shader 9 finished CTA #0 (2233,0), 4 CTAs running
GPGPU-Sim uArch: Shader 6 finished CTA #1 (2243,0), 4 CTAs running
GPGPU-Sim uArch: Shader 0 finished CTA #0 (2245,0), 4 CTAs running
GPGPU-Sim uArch: Shader 3 finished CTA #1 (2262,0), 4 CTAs running
GPGPU-Sim uArch: Shader 10 finished CTA #0 (2265,0), 3 CTAs running
GPGPU-Sim uArch: Shader 13 finished CTA #0 (2267,0), 4 CTAs running
GPGPU-Sim uArch: Shader 8 finished CTA #0 (2270,0), 4 CTAs running
GPGPU-Sim uArch: Shader 12 finished CTA #0 (2271,0), 3 CTAs running
GPGPU-Sim uArch: Shader 4 finished CTA #1 (2273,0), 4 CTAs running
GPGPU-Sim uArch: Shader 5 finished CTA #1 (2273,0), 4 CTAs running
GPGPU-Sim uArch: Shader 11 finished CTA #0 (2281,0), 3 CTAs running
GPGPU-Sim uArch: Shader 2 finished CTA #1 (2282,0), 4 CTAs running
GPGPU-Sim uArch: Shader 1 finished CTA #3 (2283,0), 3 CTAs running
GPGPU-Sim uArch: Shader 2 finished CTA #2 (2292,0), 3 CTAs running
GPGPU-Sim uArch: Shader 3 finished CTA #2 (2295,0), 3 CTAs running
GPGPU-Sim uArch: Shader 7 finished CTA #0 (2303,0), 4 CTAs running
GPGPU-Sim uArch: Shader 9 finished CTA #1 (2314,0), 3 CTAs running
GPGPU-Sim uArch: Shader 5 finished CTA #2 (2322,0), 3 CTAs running
GPGPU-Sim uArch: Shader 9 finished CTA #2 (2324,0), 2 CTAs running
GPGPU-Sim uArch: Shader 4 finished CTA #2 (2326,0), 3 CTAs running
GPGPU-Sim uArch: Shader 0 finished CTA #2 (2328,0), 3 CTAs running
GPGPU-Sim uArch: Shader 7 finished CTA #1 (2331,0), 3 CTAs running
GPGPU-Sim uArch: Shader 7 finished CTA #2 (2333,0), 2 CTAs running
GPGPU-Sim uArch: Shader 8 finished CTA #1 (2333,0), 3 CTAs running
GPGPU-Sim uArch: Shader 1 finished CTA #4 (2337,0), 2 CTAs running
GPGPU-Sim uArch: Shader 11 finished CTA #1 (2349,0), 2 CTAs running
GPGPU-Sim uArch: Shader 14 finished CTA #1 (2349,0), 3 CTAs running
GPGPU-Sim uArch: Shader 13 finished CTA #1 (2351,0), 3 CTAs running
GPGPU-Sim uArch: Shader 1 finished CTA #5 (2358,0), 1 CTAs running
GPGPU-Sim uArch: Shader 11 finished CTA #2 (2358,0), 1 CTAs running
GPGPU-Sim uArch: Shader 3 finished CTA #3 (2360,0), 2 CTAs running
GPGPU-Sim uArch: Shader 10 finished CTA #1 (2361,0), 2 CTAs running
GPGPU-Sim uArch: Shader 2 finished CTA #3 (2364,0), 2 CTAs running
GPGPU-Sim uArch: Shader 13 finished CTA #2 (2364,0), 2 CTAs running
GPGPU-Sim uArch: Shader 12 finished CTA #1 (2370,0), 2 CTAs running
GPGPU-Sim uArch: Shader 14 finished CTA #0 (2372,0), 2 CTAs running
GPGPU-Sim uArch: Shader 10 finished CTA #2 (2376,0), 1 CTAs running
GPGPU-Sim uArch: Shader 12 finished CTA #2 (2378,0), 1 CTAs running
GPGPU-Sim uArch: Shader 8 finished CTA #2 (2380,0), 2 CTAs running
GPGPU-Sim uArch: Shader 14 finished CTA #2 (2385,0), 1 CTAs running
GPGPU-Sim uArch: Shader 6 finished CTA #2 (2386,0), 3 CTAs running
GPGPU-Sim uArch: Shader 4 finished CTA #3 (2388,0), 2 CTAs running
GPGPU-Sim uArch: Shader 12 finished CTA #3 (2388,0), 0 CTAs running
GPGPU-Sim uArch: Shader 12 empty (release kernel 1 '_Z6KernelP4NodePiPbS2_S1_S2_i').
GPGPU-Sim uArch: Shader 0 finished CTA #3 (2391,0), 2 CTAs running
GPGPU-Sim uArch: Shader 8 finished CTA #4 (2393,0), 1 CTAs running
GPGPU-Sim uArch: Shader 6 finished CTA #3 (2395,0), 2 CTAs running
GPGPU-Sim uArch: Shader 10 finished CTA #3 (2395,0), 0 CTAs running
GPGPU-Sim uArch: Shader 10 empty (release kernel 1 '_Z6KernelP4NodePiPbS2_S1_S2_i').
GPGPU-Sim uArch: Shader 9 finished CTA #3 (2397,0), 1 CTAs running
GPGPU-Sim uArch: Shader 7 finished CTA #3 (2400,0), 1 CTAs running
GPGPU-Sim uArch: Shader 11 finished CTA #3 (2406,0), 0 CTAs running
GPGPU-Sim uArch: Shader 11 empty (release kernel 1 '_Z6KernelP4NodePiPbS2_S1_S2_i').
GPGPU-Sim uArch: Shader 3 finished CTA #4 (2409,0), 1 CTAs running
GPGPU-Sim uArch: Shader 2 finished CTA #4 (2412,0), 1 CTAs running
GPGPU-Sim uArch: Shader 13 finished CTA #3 (2413,0), 1 CTAs running
GPGPU-Sim uArch: Shader 4 finished CTA #4 (2423,0), 1 CTAs running
GPGPU-Sim uArch: Shader 7 finished CTA #4 (2425,0), 0 CTAs running
GPGPU-Sim uArch: Shader 7 empty (release kernel 1 '_Z6KernelP4NodePiPbS2_S1_S2_i').
GPGPU-Sim uArch: Shader 0 finished CTA #4 (2426,0), 1 CTAs running
GPGPU-Sim uArch: Shader 6 finished CTA #4 (2426,0), 1 CTAs running
GPGPU-Sim uArch: Shader 5 finished CTA #4 (2427,0), 2 CTAs running
GPGPU-Sim uArch: Shader 9 finished CTA #4 (2427,0), 0 CTAs running
GPGPU-Sim uArch: Shader 9 empty (release kernel 1 '_Z6KernelP4NodePiPbS2_S1_S2_i').
GPGPU-Sim uArch: Shader 14 finished CTA #3 (2427,0), 0 CTAs running
GPGPU-Sim uArch: Shader 14 empty (release kernel 1 '_Z6KernelP4NodePiPbS2_S1_S2_i').
GPGPU-Sim uArch: Shader 2 finished CTA #5 (2429,0), 0 CTAs running
GPGPU-Sim uArch: Shader 2 empty (release kernel 1 '_Z6KernelP4NodePiPbS2_S1_S2_i').
GPGPU-Sim uArch: Shader 3 finished CTA #5 (2431,0), 0 CTAs running
GPGPU-Sim uArch: Shader 3 empty (release kernel 1 '_Z6KernelP4NodePiPbS2_S1_S2_i').
GPGPU-Sim uArch: Shader 8 finished CTA #3 (2435,0), 0 CTAs running
GPGPU-Sim uArch: Shader 8 empty (release kernel 1 '_Z6KernelP4NodePiPbS2_S1_S2_i').
GPGPU-Sim uArch: Shader 0 finished CTA #5 (2439,0), 0 CTAs running
GPGPU-Sim uArch: Shader 0 empty (release kernel 1 '_Z6KernelP4NodePiPbS2_S1_S2_i').
GPGPU-Sim uArch: Shader 5 finished CTA #3 (2441,0), 1 CTAs running
GPGPU-Sim uArch: Shader 13 finished CTA #4 (2441,0), 0 CTAs running
GPGPU-Sim uArch: Shader 13 empty (release kernel 1 '_Z6KernelP4NodePiPbS2_S1_S2_i').
GPGPU-Sim uArch: Shader 4 finished CTA #5 (2442,0), 0 CTAs running
GPGPU-Sim uArch: Shader 4 empty (release kernel 1 '_Z6KernelP4NodePiPbS2_S1_S2_i').
GPGPU-Sim uArch: Shader 5 finished CTA #5 (2452,0), 0 CTAs running
GPGPU-Sim uArch: Shader 5 empty (release kernel 1 '_Z6KernelP4NodePiPbS2_S1_S2_i').
GPGPU-Sim uArch: Shader 6 finished CTA #5 (2467,0), 0 CTAs running
GPGPU-Sim uArch: Shader 6 empty (release kernel 1 '_Z6KernelP4NodePiPbS2_S1_S2_i').
GPGPU-Sim uArch: cycles simulated: 2500  inst.: 917494 (ipc=367.0) sim_rate=229373 (inst/sec) elapsed = 0:0:00:04 / Wed Mar  2 01:16:21 2016
GPGPU-Sim uArch: Shader 1 finished CTA #0 (5892,0), 0 CTAs running
GPGPU-Sim uArch: Shader 1 empty (release kernel 1 '_Z6KernelP4NodePiPbS2_S1_S2_i').
GPGPU-Sim uArch: GPU detected kernel '_Z6KernelP4NodePiPbS2_S1_S2_i' finished on shader 1.
kernel_name = _Z6KernelP4NodePiPbS2_S1_S2_i 
kernel_launch_uid = 1 
gpu_sim_cycle = 5893
gpu_sim_insn = 917736
gpu_ipc =     155.7332
gpu_tot_sim_cycle = 5893
gpu_tot_sim_insn = 917736
gpu_tot_ipc =     155.7332
gpu_tot_issued_cta = 256
gpu_stall_dramfull = 280
gpu_stall_icnt2sh    = 263
gpu_total_sim_rate=229434

========= Core cache stats =========
L1I_cache:
	L1I_total_cache_accesses = 18559
	L1I_total_cache_misses = 962
	L1I_total_cache_miss_rate = 0.0518
	L1I_total_cache_pending_hits = 0
	L1I_total_cache_reservation_fails = 6620
L1D_cache:
	L1D_cache_core[0]: Access = 144, Miss = 36, Miss_rate = 0.250, Pending_hits = 108, Reservation_fails = 0
	L1D_cache_core[1]: Access = 196, Miss = 68, Miss_rate = 0.347, Pending_hits = 96, Reservation_fails = 0
	L1D_cache_core[2]: Access = 144, Miss = 36, Miss_rate = 0.250, Pending_hits = 108, Reservation_fails = 0
	L1D_cache_core[3]: Access = 144, Miss = 36, Miss_rate = 0.250, Pending_hits = 108, Reservation_fails = 0
	L1D_cache_core[4]: Access = 144, Miss = 36, Miss_rate = 0.250, Pending_hits = 108, Reservation_fails = 0
	L1D_cache_core[5]: Access = 144, Miss = 36, Miss_rate = 0.250, Pending_hits = 108, Reservation_fails = 0
	L1D_cache_core[6]: Access = 144, Miss = 36, Miss_rate = 0.250, Pending_hits = 108, Reservation_fails = 0
	L1D_cache_core[7]: Access = 136, Miss = 34, Miss_rate = 0.250, Pending_hits = 102, Reservation_fails = 0
	L1D_cache_core[8]: Access = 136, Miss = 34, Miss_rate = 0.250, Pending_hits = 102, Reservation_fails = 0
	L1D_cache_core[9]: Access = 136, Miss = 34, Miss_rate = 0.250, Pending_hits = 102, Reservation_fails = 0
	L1D_cache_core[10]: Access = 128, Miss = 32, Miss_rate = 0.250, Pending_hits = 96, Reservation_fails = 0
	L1D_cache_core[11]: Access = 128, Miss = 32, Miss_rate = 0.250, Pending_hits = 96, Reservation_fails = 0
	L1D_cache_core[12]: Access = 128, Miss = 32, Miss_rate = 0.250, Pending_hits = 96, Reservation_fails = 0
	L1D_cache_core[13]: Access = 136, Miss = 34, Miss_rate = 0.250, Pending_hits = 102, Reservation_fails = 0
	L1D_cache_core[14]: Access = 128, Miss = 32, Miss_rate = 0.250, Pending_hits = 96, Reservation_fails = 0
	L1D_total_cache_accesses = 2116
	L1D_total_cache_misses = 548
	L1D_total_cache_miss_rate = 0.2590
	L1D_total_cache_pending_hits = 1536
	L1D_total_cache_reservation_fails = 0
	L1D_cache_data_port_util = 0.001
	L1D_cache_fill_port_util = 0.013
L1C_cache:
	L1C_total_cache_accesses = 4115
	L1C_total_cache_misses = 480
	L1C_total_cache_miss_rate = 0.1166
	L1C_total_cache_pending_hits = 0
	L1C_total_cache_reservation_fails = 3275
L1T_cache:
	L1T_total_cache_accesses = 0
	L1T_total_cache_misses = 0
	L1T_total_cache_pending_hits = 0
	L1T_total_cache_reservation_fails = 0

Total_core_cache_stats:
	Total_core_cache_stats_breakdown[GLOBAL_ACC_R][HIT] = 31
	Total_core_cache_stats_breakdown[GLOBAL_ACC_R][HIT_RESERVED] = 1536
	Total_core_cache_stats_breakdown[GLOBAL_ACC_R][MISS] = 523
	Total_core_cache_stats_breakdown[CONST_ACC_R][HIT] = 3635
	Total_core_cache_stats_breakdown[CONST_ACC_R][MISS] = 480
	Total_core_cache_stats_breakdown[CONST_ACC_R][RESERVATION_FAIL] = 3275
	Total_core_cache_stats_breakdown[GLOBAL_ACC_W][HIT] = 1
	Total_core_cache_stats_breakdown[GLOBAL_ACC_W][MISS] = 25
	Total_core_cache_stats_breakdown[INST_ACC_R][HIT] = 17597
	Total_core_cache_stats_breakdown[INST_ACC_R][MISS] = 962
	Total_core_cache_stats_breakdown[INST_ACC_R][RESERVATION_FAIL] = 6620
Shader 0 warp_id issue ditsribution:
warp_id:
0, 1, 2, 3, 4, 5, 6, 7, 8, 9, 10, 11, 12, 13, 14, 15, 16, 17, 18, 19, 20, 21, 22, 23, 24, 25, 26, 27, 28, 29, 30, 31, 32, 33, 34, 35, 36, 37, 38, 39, 40, 41, 42, 43, 44, 45, 46, 47, 
distro:
45, 45, 45, 45, 45, 45, 45, 45, 45, 45, 45, 45, 45, 45, 45, 45, 45, 45, 45, 45, 45, 45, 45, 45, 45, 45, 45, 45, 45, 45, 45, 45, 45, 45, 45, 45, 45, 45, 45, 45, 45, 45, 45, 45, 45, 45, 45, 45, 
gpgpu_n_tot_thrd_icount = 990816
gpgpu_n_tot_w_icount = 30963
gpgpu_n_stall_shd_mem = 3275
gpgpu_n_mem_read_local = 0
gpgpu_n_mem_write_local = 0
gpgpu_n_mem_read_global = 523
gpgpu_n_mem_write_global = 26
gpgpu_n_mem_texture = 0
gpgpu_n_mem_const = 15
gpgpu_n_load_insn  = 65578
gpgpu_n_store_insn = 26
gpgpu_n_shmem_insn = 0
gpgpu_n_tex_insn = 0
gpgpu_n_const_mem_insn = 0
gpgpu_n_param_mem_insn = 131091
gpgpu_n_shmem_bkconflict = 0
gpgpu_n_cache_bkconflict = 0
gpgpu_n_intrawarp_mshr_merge = 0
gpgpu_n_cmem_portconflict = 3275
gpgpu_stall_shd_mem[c_mem][bk_conf] = 3275
gpgpu_stall_shd_mem[c_mem][mshr_rc] = 0
gpgpu_stall_shd_mem[c_mem][icnt_rc] = 0
gpgpu_stall_shd_mem[c_mem][data_port_stall] = 0
gpgpu_stall_shd_mem[t_mem][mshr_rc] = 0
gpgpu_stall_shd_mem[t_mem][icnt_rc] = 0
gpgpu_stall_shd_mem[t_mem][data_port_stall] = 0
gpgpu_stall_shd_mem[s_mem][bk_conf] = 0
gpgpu_stall_shd_mem[gl_mem][bk_conf] = 0
gpgpu_stall_shd_mem[gl_mem][coal_stall] = 0
gpgpu_stall_shd_mem[gl_mem][data_port_stall] = 0
gpgpu_stall_shd_mem[g_mem_ld][mshr_rc] = 0
gpgpu_stall_shd_mem[g_mem_ld][icnt_rc] = 0
gpgpu_stall_shd_mem[g_mem_ld][wb_icnt_rc] = 0
gpgpu_stall_shd_mem[g_mem_ld][wb_rsrv_fail] = 0
gpgpu_stall_shd_mem[g_mem_st][mshr_rc] = 0
gpgpu_stall_shd_mem[g_mem_st][icnt_rc] = 0
gpgpu_stall_shd_mem[g_mem_st][wb_icnt_rc] = 0
gpgpu_stall_shd_mem[g_mem_st][wb_rsrv_fail] = 0
gpgpu_stall_shd_mem[l_mem_ld][mshr_rc] = 0
gpgpu_stall_shd_mem[l_mem_ld][icnt_rc] = 0
gpgpu_stall_shd_mem[l_mem_ld][wb_icnt_rc] = 0
gpgpu_stall_shd_mem[l_mem_ld][wb_rsrv_fail] = 0
gpgpu_stall_shd_mem[l_mem_st][mshr_rc] = 0
gpgpu_stall_shd_mem[l_mem_st][icnt_rc] = 0
gpgpu_stall_shd_mem[l_mem_ld][wb_icnt_rc] = 0
gpgpu_stall_shd_mem[l_mem_ld][wb_rsrv_fail] = 0
gpu_reg_bank_conflict_stalls = 0
Warp Occupancy Distribution:
Stall:7402	W0_Idle:18369	W0_Scoreboard:23088	W1:243	W2:0	W3:0	W4:0	W5:0	W6:0	W7:0	W8:0	W9:0	W10:0	W11:0	W12:0	W13:0	W14:0	W15:0	W16:0	W17:0	W18:0	W19:0	W20:0	W21:0	W22:0	W23:0	W24:0	W25:0	W26:0	W27:0	W28:0	W29:0	W30:0	W31:0	W32:30720
traffic_breakdown_coretomem[CONST_ACC_R] = 120 {8:15,}
traffic_breakdown_coretomem[GLOBAL_ACC_R] = 4184 {8:523,}
traffic_breakdown_coretomem[GLOBAL_ACC_W] = 1040 {40:26,}
traffic_breakdown_coretomem[INST_ACC_R] = 256 {8:32,}
traffic_breakdown_memtocore[CONST_ACC_R] = 1080 {72:15,}
traffic_breakdown_memtocore[GLOBAL_ACC_R] = 71128 {136:523,}
traffic_breakdown_memtocore[GLOBAL_ACC_W] = 208 {8:26,}
traffic_breakdown_memtocore[INST_ACC_R] = 4352 {136:32,}
maxmrqlatency = 15 
maxdqlatency = 0 
maxmflatency = 323 
averagemflatency = 259 
max_icnt2mem_latency = 36 
max_icnt2sh_latency = 5892 
mrq_lat_table:495 	11 	33 	9 	0 	0 	0 	0 	0 	0 	0 	0 	0 	0 	0 	0 	0 	0 	0 	0 	0 	0 	0 	0 	0 	0 	0 	0 	0 	0 	0 	0 	
dq_lat_table:0 	0 	0 	0 	0 	0 	0 	0 	0 	0 	0 	0 	0 	0 	0 	0 	0 	0 	0 	0 	0 	0 	0 	0 	0 	0 	0 	0 	0 	0 	0 	0 	
mf_lat_table:0 	0 	0 	0 	0 	0 	0 	31 	533 	0 	0 	0 	0 	0 	0 	0 	0 	0 	0 	0 	0 	0 	0 	0 	0 	0 	0 	0 	0 	0 	0 	0 	
icnt2mem_lat_table:0 	0 	0 	585 	8 	3 	0 	0 	0 	0 	0 	0 	0 	0 	0 	0 	0 	0 	0 	0 	0 	0 	0 	0 	
icnt2sh_lat_table:0 	0 	0 	347 	180 	11 	0 	0 	0 	0 	2 	9 	15 	0 	0 	0 	0 	0 	0 	0 	0 	0 	0 	0 	
mf_lat_pw_table:0 	0 	0 	0 	0 	0 	0 	6 	4 	0 	0 	0 	0 	0 	0 	0 	0 	0 	0 	0 	0 	0 	0 	0 	0 	0 	0 	0 	0 	0 	0 	0 	
maximum concurrent accesses to same row:
dram[0]:         1         0         0         0         0         0         0         0         0         0         0         0         0         0         0         0 
dram[1]:         0         0         0         0         0         0         0         0         0         0         0         0         0         0         0         0 
dram[2]:         0         0         0         0         0         0         0         0         0         0         0         0         0         0         0         0 
dram[3]:         0         0         0         0         0         0         0         0         0         0         0         0         0         0         0         0 
dram[4]:         0         0         0         0         0         0         0         0         0         0        22        22         0         0         0         0 
dram[5]:         0         0         0         0         0         0         0         0         0         0         0         0         0         0         0         0 
maximum service time to same row:
dram[0]:      1563         0      5874         0         0         0         0         0         0         0       928       904      1751      1766         0         0 
dram[1]:      1179         0         0         0         0         0         0         0         0         0       935       907      1741      1735         0      3944 
dram[2]:         0         0         0      3071         0      1604         0         0         0      4277       947       910      1750      1532         0         0 
dram[3]:         0         0         0      5071         0      4674         0         0         0         0       944       913      1749      1743         0         0 
dram[4]:         0      3871         0         0         0      5468         0         0         0         0      1256      2546      1763      1747      3141         0 
dram[5]:         0         0         0         0         0         0         0         0         0         0       900       926      1757      1768      5541         0 
average row accesses per activate:
dram[0]:  1.000000      -nan  2.000000      -nan      -nan      -nan      -nan      -nan      -nan      -nan 20.000000 22.000000 22.000000 22.000000      -nan      -nan 
dram[1]:  2.000000      -nan      -nan      -nan      -nan      -nan      -nan      -nan      -nan      -nan 20.000000 22.000000 24.000000 22.000000      -nan  3.000000 
dram[2]:      -nan      -nan      -nan  2.000000      -nan  1.000000      -nan      -nan      -nan  2.000000 20.000000 22.000000 22.000000 22.000000      -nan      -nan 
dram[3]:      -nan      -nan      -nan  2.000000      -nan  2.000000      -nan      -nan      -nan      -nan 20.000000 22.000000 22.000000 20.000000      -nan      -nan 
dram[4]:      -nan  2.000000      -nan      -nan      -nan  2.000000      -nan      -nan      -nan      -nan  8.333333 12.000000 22.000000 20.000000  2.000000      -nan 
dram[5]:      -nan      -nan      -nan      -nan      -nan      -nan      -nan      -nan      -nan      -nan 22.000000 22.000000 22.000000 20.000000  1.000000      -nan 
average row locality = 548/43 = 12.744186
number of total memory accesses made:
dram[0]:         0         0         0         0         0         0         0         0         0         0         0         0         0         0         0         0 
dram[1]:         0         0         0         0         0         0         0         0         0         0         0         0         0         0         0         0 
dram[2]:         0         0         0         0         0         0         0         0         0         0         0         0         0         0         0         0 
dram[3]:         0         0         0         0         0         0         0         0         0         0         0         0         0         0         0         0 
dram[4]:         0         0         0         0         0         0         0         0         0         0         0         0         0         0         0         0 
dram[5]:         0         0         0         0         0         0         0         0         0         0         0         0         0         0         0         0 
total accesses: 0
min_bank_accesses = 0!
min_chip_accesses = 0!
number of total read accesses:
dram[0]:         4         0         1         0         0         0         0         0         0         0        20        22        22        22         0         0 
dram[1]:         2         0         0         0         0         0         0         0         0         0        20        22        24        22         0         3 
dram[2]:         0         0         0         1         0         1         0         0         0         1        20        22        22        21         0         0 
dram[3]:         0         0         0         1         0         1         0         0         0         0        20        22        22        20         0         0 
dram[4]:         0         1         0         0         0         1         0         0         0         0        24        23        22        20         2         0 
dram[5]:         0         0         0         0         0         0         0         0         0         0        22        22        22        20         1         0 
total reads: 538
min_bank_accesses = 0!
chip skew: 93/86 = 1.08
number of total write accesses:
dram[0]:         0         0         1         0         0         0         0         0         0         0         0         0         0         0         0         0 
dram[1]:         0         0         0         0         0         0         0         0         0         0         0         0         0         0         0         0 
dram[2]:         0         0         0         1         0         0         0         0         0         1         0         0         0         1         0         0 
dram[3]:         0         0         0         1         0         1         0         0         0         0         0         0         0         0         0         0 
dram[4]:         0         1         0         0         0         1         0         0         0         0         1         1         0         0         0         0 
dram[5]:         0         0         0         0         0         0         0         0         0         0         0         0         0         0         0         0 
total reads: 10
min_bank_accesses = 0!
min_chip_accesses = 0!
average mf latency per bank:
dram[0]:       1044    none         126    none      none      none      none      none      none      none         261       261       286       259    none      none  
dram[1]:          0    none      none      none      none      none      none      none      none      none         271       260       259       260    none         260
dram[2]:     none      none      none         126    none         265    none      none      none         126       262       264       260       250    none      none  
dram[3]:     none      none      none         126    none         126    none      none      none      none         270       274       274       263    none      none  
dram[4]:     none         126    none      none      none         126    none      none      none      none         295       253       261       260       261    none  
dram[5]:     none      none      none      none      none      none      none      none      none      none         264       262       262       261       266    none  
maximum mf latency per bank:
dram[0]:        279         0       252         0         0         0         0         0         0         0       275       275       323       275         0         0
dram[1]:          0         0         0         0         0         0         0         0         0         0       276       272       278       269         0       266
dram[2]:          0         0         0       252         0       265         0         0         0       252       274       281       269       277         0         0
dram[3]:          0         0         0       252         0       252         0         0         0         0       278       275       293       290         0         0
dram[4]:          0       252         0         0         0       252         0         0         0         0       284       281       290       271       266         0
dram[5]:          0         0         0         0         0         0         0         0         0         0       281       279       280       276       266         0

Number of Memory Banks Accessed per Memory Operation per Warp (from 0):
0	0	0	0	0	0	0	0	0	0	0	0	0	0	0	0	0	0	0	0	0	0	0	0	0	0	0	0	0	0	0	0	0	0	0	0	0	0	0	0	0	0	0	0	0	0	0	0	0	0	0	0	0	0	0	0	0	0	0	0	0	0	0	0	0	0	0	0	0	0	0	0	0	0	0	0	0	0	0	0	0	0	0	0	0	0	0	0	0	0	0	0	0	0	0	0	
Average # of Memory Banks Accessed per Memory Operation per Warp=-nan

position of mrq chosen
0	0	0	0	0	0	0	0	0	0	0	0	0	0	0	0	

average position of mrq chosen = -nan
Memory Partition 0: 
Cache L2_bank_000:
MSHR contents
MSHR: tag=0x80234400, atomic=0 1 entries : 0x7f77f40a9110 :  mf: uid= 34695, sid01:w00, part=0, addr=0x80234440, load , size=32, unknown  status = IN_PARTITION_DRAM (5889), 

Cache L2_bank_001:
MSHR contents

In Dram Latency Queue (total = 0): 
DRAM[0]: 16 bks, busW=4 BL=16 CL=12, tRRD=2 tCCD=6, tRCD=12 tRAS=28 tRP=12 tRC=40
n_cmd=7778 n_nop=7674 n_act=9 n_pre=3 n_req=92 n_rd=91 n_write=1 bw_util=0.04731
n_activity=905 dram_eff=0.4066
bk0: 4a 7688i bk1: 0a 7774i bk2: 1a 7755i bk3: 0a 7775i bk4: 0a 7776i bk5: 0a 7777i bk6: 0a 7779i bk7: 0a 7779i bk8: 0a 7780i bk9: 0a 7780i bk10: 20a 7744i bk11: 22a 7735i bk12: 22a 7730i bk13: 22a 7740i bk14: 0a 7777i bk15: 0a 7777i 
dram_util_bins: 0 0 0 0 0 0 0 0 0 0
dram_eff_bins: 0 0 0 0 0 0 0 0 0 0
mrqq: max=2 avg=0.00604268
Memory Partition 1: 
Cache L2_bank_002:
MSHR contents

Cache L2_bank_003:
MSHR contents

In Dram Latency Queue (total = 0): 
DRAM[1]: 16 bks, busW=4 BL=16 CL=12, tRRD=2 tCCD=6, tRCD=12 tRAS=28 tRP=12 tRC=40
n_cmd=7778 n_nop=7679 n_act=6 n_pre=0 n_req=93 n_rd=93 n_write=0 bw_util=0.04783
n_activity=812 dram_eff=0.4581
bk0: 2a 7761i bk1: 0a 7776i bk2: 0a 7777i bk3: 0a 7777i bk4: 0a 7777i bk5: 0a 7777i bk6: 0a 7777i bk7: 0a 7779i bk8: 0a 7780i bk9: 0a 7780i bk10: 20a 7741i bk11: 22a 7738i bk12: 24a 7735i bk13: 22a 7722i bk14: 0a 7776i bk15: 3a 7762i 
dram_util_bins: 0 0 0 0 0 0 0 0 0 0
dram_eff_bins: 0 0 0 0 0 0 0 0 0 0
mrqq: max=2 avg=0.00578555
Memory Partition 2: 
Cache L2_bank_004:
MSHR contents

Cache L2_bank_005:
MSHR contents

In Dram Latency Queue (total = 0): 
DRAM[2]: 16 bks, busW=4 BL=16 CL=12, tRRD=2 tCCD=6, tRCD=12 tRAS=28 tRP=12 tRC=40
n_cmd=7778 n_nop=7680 n_act=7 n_pre=0 n_req=91 n_rd=88 n_write=3 bw_util=0.0468
n_activity=799 dram_eff=0.4556
bk0: 0a 7778i bk1: 0a 7779i bk2: 0a 7779i bk3: 1a 7757i bk4: 0a 7777i bk5: 1a 7763i bk6: 0a 7778i bk7: 0a 7780i bk8: 0a 7780i bk9: 1a 7758i bk10: 20a 7739i bk11: 22a 7734i bk12: 22a 7736i bk13: 21a 7713i bk14: 0a 7775i bk15: 0a 7776i 
dram_util_bins: 0 0 0 0 0 0 0 0 0 0
dram_eff_bins: 0 0 0 0 0 0 0 0 0 0
mrqq: max=2 avg=0.00539985
Memory Partition 3: 
Cache L2_bank_006:
MSHR contents

Cache L2_bank_007:
MSHR contents

In Dram Latency Queue (total = 0): 
DRAM[3]: 16 bks, busW=4 BL=16 CL=12, tRRD=2 tCCD=6, tRCD=12 tRAS=28 tRP=12 tRC=40
n_cmd=7778 n_nop=7684 n_act=6 n_pre=0 n_req=88 n_rd=86 n_write=2 bw_util=0.04526
n_activity=712 dram_eff=0.4944
bk0: 0a 7778i bk1: 0a 7780i bk2: 0a 7780i bk3: 1a 7758i bk4: 0a 7778i bk5: 1a 7756i bk6: 0a 7777i bk7: 0a 7778i bk8: 0a 7779i bk9: 0a 7779i bk10: 20a 7733i bk11: 22a 7738i bk12: 22a 7731i bk13: 20a 7713i bk14: 0a 7774i bk15: 0a 7775i 
dram_util_bins: 0 0 0 0 0 0 0 0 0 0
dram_eff_bins: 0 0 0 0 0 0 0 0 0 0
mrqq: max=2 avg=0.00707123
Memory Partition 4: 
Cache L2_bank_008:
MSHR contents

Cache L2_bank_009:
MSHR contents

In Dram Latency Queue (total = 0): 
DRAM[4]: 16 bks, busW=4 BL=16 CL=12, tRRD=2 tCCD=6, tRCD=12 tRAS=28 tRP=12 tRC=40
n_cmd=7778 n_nop=7668 n_act=10 n_pre=3 n_req=97 n_rd=93 n_write=4 bw_util=0.04988
n_activity=909 dram_eff=0.4268
bk0: 0a 7775i bk1: 1a 7755i bk2: 0a 7776i bk3: 0a 7778i bk4: 0a 7778i bk5: 1a 7758i bk6: 0a 7780i bk7: 0a 7781i bk8: 0a 7782i bk9: 0a 7783i bk10: 24a 7680i bk11: 23a 7692i bk12: 22a 7725i bk13: 20a 7714i bk14: 2a 7759i bk15: 0a 7772i 
dram_util_bins: 0 0 0 0 0 0 0 0 0 0
dram_eff_bins: 0 0 0 0 0 0 0 0 0 0
mrqq: max=2 avg=0.0163281
Memory Partition 5: 
Cache L2_bank_010:
MSHR contents

Cache L2_bank_011:
MSHR contents

In Dram Latency Queue (total = 0): 
DRAM[5]: 16 bks, busW=4 BL=16 CL=12, tRRD=2 tCCD=6, tRCD=12 tRAS=28 tRP=12 tRC=40
n_cmd=7778 n_nop=7686 n_act=5 n_pre=0 n_req=87 n_rd=87 n_write=0 bw_util=0.04474
n_activity=717 dram_eff=0.4854
bk0: 0a 7775i bk1: 0a 7776i bk2: 0a 7776i bk3: 0a 7776i bk4: 0a 7777i bk5: 0a 7778i bk6: 0a 7779i bk7: 0a 7781i bk8: 0a 7781i bk9: 0a 7781i bk10: 22a 7734i bk11: 22a 7733i bk12: 22a 7733i bk13: 20a 7735i bk14: 1a 7762i bk15: 0a 7774i 
dram_util_bins: 0 0 0 0 0 0 0 0 0 0
dram_eff_bins: 0 0 0 0 0 0 0 0 0 0
mrqq: max=2 avg=0.0039856

========= L2 cache stats =========
L2_cache_bank[0]: Access = 77, Miss = 47, Miss_rate = 0.610, Pending_hits = 6, Reservation_fails = 227
L2_cache_bank[1]: Access = 44, Miss = 44, Miss_rate = 1.000, Pending_hits = 0, Reservation_fails = 0
L2_cache_bank[2]: Access = 61, Miss = 46, Miss_rate = 0.754, Pending_hits = 3, Reservation_fails = 107
L2_cache_bank[3]: Access = 47, Miss = 47, Miss_rate = 1.000, Pending_hits = 0, Reservation_fails = 0
L2_cache_bank[4]: Access = 42, Miss = 42, Miss_rate = 1.000, Pending_hits = 0, Reservation_fails = 0
L2_cache_bank[5]: Access = 46, Miss = 46, Miss_rate = 1.000, Pending_hits = 0, Reservation_fails = 0
L2_cache_bank[6]: Access = 45, Miss = 42, Miss_rate = 0.933, Pending_hits = 0, Reservation_fails = 0
L2_cache_bank[7]: Access = 46, Miss = 44, Miss_rate = 0.957, Pending_hits = 0, Reservation_fails = 0
L2_cache_bank[8]: Access = 56, Miss = 48, Miss_rate = 0.857, Pending_hits = 0, Reservation_fails = 0
L2_cache_bank[9]: Access = 45, Miss = 45, Miss_rate = 1.000, Pending_hits = 0, Reservation_fails = 0
L2_cache_bank[10]: Access = 45, Miss = 45, Miss_rate = 1.000, Pending_hits = 0, Reservation_fails = 0
L2_cache_bank[11]: Access = 42, Miss = 42, Miss_rate = 1.000, Pending_hits = 0, Reservation_fails = 0
L2_total_cache_accesses = 596
L2_total_cache_misses = 538
L2_total_cache_miss_rate = 0.9027
L2_total_cache_pending_hits = 9
L2_total_cache_reservation_fails = 334
L2_total_cache_breakdown:
	L2_cache_stats_breakdown[GLOBAL_ACC_R][MISS] = 523
	L2_cache_stats_breakdown[CONST_ACC_R][HIT] = 11
	L2_cache_stats_breakdown[CONST_ACC_R][HIT_RESERVED] = 3
	L2_cache_stats_breakdown[CONST_ACC_R][MISS] = 1
	L2_cache_stats_breakdown[CONST_ACC_R][RESERVATION_FAIL] = 114
	L2_cache_stats_breakdown[GLOBAL_ACC_W][HIT] = 16
	L2_cache_stats_breakdown[GLOBAL_ACC_W][MISS] = 10
	L2_cache_stats_breakdown[INST_ACC_R][HIT] = 22
	L2_cache_stats_breakdown[INST_ACC_R][HIT_RESERVED] = 6
	L2_cache_stats_breakdown[INST_ACC_R][MISS] = 4
	L2_cache_stats_breakdown[INST_ACC_R][RESERVATION_FAIL] = 220
L2_cache_data_port_util = 0.002
L2_cache_fill_port_util = 0.030

icnt_total_pkts_mem_to_simt=2846
icnt_total_pkts_simt_to_mem=622
LD_mem_lat_dist  0 0 0 0 0 0 0 0 0 0 0 0 0 0 0 0 0 0 0 0 0 0 0 0 0 0 0
ST_mem_lat_dist  0 0 0 0 0 0 0 0 0 0 0 0 0 0 0 0 0 0 0 0 0 0 0 0 0 0 0
----------------------------Interconnect-DETAILS--------------------------------
Class 0:
Packet latency average = 10.0948
	minimum = 6
	maximum = 50
Network latency average = 9.47903
	minimum = 6
	maximum = 39
Slowest packet = 733
Flit latency average = 8.19608
	minimum = 6
	maximum = 35
Slowest flit = 1997
Fragmentation average = 0
	minimum = 0
	maximum = 0
Injected packet rate average = 0.00749163
	minimum = 0.00593925 (at node 10)
	maximum = 0.0130663 (at node 15)
Accepted packet rate average = 0.00749163
	minimum = 0.00593925 (at node 10)
	maximum = 0.0130663 (at node 15)
Injected flit rate average = 0.0217961
	minimum = 0.00593925 (at node 10)
	maximum = 0.0582046 (at node 15)
Accepted flit rate average= 0.0217961
	minimum = 0.0071271 (at node 19)
	maximum = 0.0447989 (at node 1)
Injected packet length average = 2.9094
Accepted packet length average = 2.9094
Total in-flight flits = 0 (0 measured)
====== Overall Traffic Statistics ======
====== Traffic class 0 ======
Packet latency average = 10.0948 (1 samples)
	minimum = 6 (1 samples)
	maximum = 50 (1 samples)
Network latency average = 9.47903 (1 samples)
	minimum = 6 (1 samples)
	maximum = 39 (1 samples)
Flit latency average = 8.19608 (1 samples)
	minimum = 6 (1 samples)
	maximum = 35 (1 samples)
Fragmentation average = 0 (1 samples)
	minimum = 0 (1 samples)
	maximum = 0 (1 samples)
Injected packet rate average = 0.00749163 (1 samples)
	minimum = 0.00593925 (1 samples)
	maximum = 0.0130663 (1 samples)
Accepted packet rate average = 0.00749163 (1 samples)
	minimum = 0.00593925 (1 samples)
	maximum = 0.0130663 (1 samples)
Injected flit rate average = 0.0217961 (1 samples)
	minimum = 0.00593925 (1 samples)
	maximum = 0.0582046 (1 samples)
Accepted flit rate average = 0.0217961 (1 samples)
	minimum = 0.0071271 (1 samples)
	maximum = 0.0447989 (1 samples)
Injected packet size average = 2.9094 (1 samples)
Accepted packet size average = 2.9094 (1 samples)
Hops average = 1 (1 samples)
----------------------------END-of-Interconnect-DETAILS-------------------------


gpgpu_simulation_time = 0 days, 0 hrs, 0 min, 4 sec (4 sec)
gpgpu_simulation_rate = 229434 (inst/sec)
gpgpu_simulation_rate = 1473 (cycle/sec)
GPGPU-Sim: synchronize waiting for inactive GPU simulation
GPGPU-Sim API: Stream Manager State
GPGPU-Sim: detected inactive GPU simulation thread

GPGPU-Sim PTX: cudaLaunch for 0x0x405636 (mode=performance simulation) on stream 0
GPGPU-Sim PTX: pushing kernel '_Z6KernelP4NodePiPbS2_S1_S2_i' to stream 0, gridDim= (256,1,1) blockDim = (256,1,1) 
[...]
traffic_breakdown_coretomem[GLOBAL_ACC_R] = 4955224 {8:619403,}
traffic_breakdown_coretomem[GLOBAL_ACC_W] = 16530472 {40:412507,72:85,136:177,}
traffic_breakdown_coretomem[INST_ACC_R] = 480 {8:60,}
traffic_breakdown_memtocore[CONST_ACC_R] = 1080 {72:15,}
traffic_breakdown_memtocore[GLOBAL_ACC_R] = 84238808 {136:619403,}
traffic_breakdown_memtocore[GLOBAL_ACC_W] = 3302152 {8:412769,}
traffic_breakdown_memtocore[INST_ACC_R] = 8160 {136:60,}
maxmrqlatency = 180 
maxdqlatency = 0 
maxmflatency = 1139 
averagemflatency = 397 
max_icnt2mem_latency = 901 
max_icnt2sh_latency = 757374 
mrq_lat_table:51175 	778 	1071 	4587 	4407 	659 	109 	15 	0 	0 	0 	0 	0 	0 	0 	0 	0 	0 	0 	0 	0 	0 	0 	0 	0 	0 	0 	0 	0 	0 	0 	0 	
dq_lat_table:0 	0 	0 	0 	0 	0 	0 	0 	0 	0 	0 	0 	0 	0 	0 	0 	0 	0 	0 	0 	0 	0 	0 	0 	0 	0 	0 	0 	0 	0 	0 	0 	
mf_lat_table:0 	0 	0 	0 	0 	0 	0 	130968 	711774 	189398 	47 	0 	0 	0 	0 	0 	0 	0 	0 	0 	0 	0 	0 	0 	0 	0 	0 	0 	0 	0 	0 	0 	
icnt2mem_lat_table:0 	0 	0 	83819 	29610 	77509 	323502 	246922 	266819 	4066 	0 	0 	0 	0 	0 	0 	0 	0 	0 	0 	0 	0 	0 	0 	
icnt2sh_lat_table:0 	0 	0 	37336 	293745 	270507 	17726 	103 	1 	0 	2 	9 	37 	927 	9107 	19435 	44586 	99238 	169875 	69553 	0 	0 	0 	0 	
mf_lat_pw_table:0 	0 	0 	0 	0 	0 	0 	97 	1420 	2 	0 	0 	0 	0 	0 	0 	0 	0 	0 	0 	0 	0 	0 	0 	0 	0 	0 	0 	0 	0 	0 	0 	
maximum concurrent accesses to same row:
dram[0]:        38        28        17        20        30        32        32        32        36        36        29        36        33        32        32        37 
dram[1]:        31        32        37        28        23        18        30        26        33        36        29        22        38        32        44        47 
dram[2]:        50        34        30        34        27        24        32        32        37        30        31        27        36        40        46        33 
dram[3]:        25        25        44        42        22        25        33        28        30        23        20        22        32        33        35        35 
dram[4]:        32        31        36        33        28        30        33        32        33        35        26        22        34        40        36        34 
dram[5]:        35        24        47        44        22        26        30        30        22        25        22        23        32        32        32        33 
maximum service time to same row:
dram[0]:     65672     47285     38231     38537     55760     59748     42374     45641     70723     57113     84881     97578     84463     73171     66172     95536 
dram[1]:     65194     79053     63387     51130     67153     57208     54509     92329     48308     63412     40524     74565     58732     81979    107437     93610 
dram[2]:     35471     44609     42451     59017     48697     59852     59619     49359     58275     45683     62293     93436     44275     54921    136767     99574 
dram[3]:     46588     83724     95406     57192     58057     40224     41600     38206     44519     42128     84557     57273     44475    120925     70238     70046 
dram[4]:     57108     45765     46822     84669     67897     79522     83706     65524     49312     49327     56743     57918    112050     94851     76654     92568 
dram[5]:     75956     62000    116486     78884    133819     49547     43263     51559     66073     51326     56621     37846     64027     81699    134694    138120 
average row accesses per activate:
dram[0]:  3.575269  3.544601  3.212121  3.451163  4.154362  4.411347  3.423424  3.378261  4.266272  4.549707  3.464088  3.133005  4.043859  3.793651  6.819672  5.706666 
dram[1]:  3.869110  3.777778  3.536697  3.466063  3.630208  3.048673  3.003623  3.327869  3.287500  3.757009  3.402913  3.319797  3.589552  3.869231  5.543210  7.285714 
dram[2]:  3.479263  3.536585  3.548544  4.070270  3.609468  4.163399  4.126437  4.393064  3.956757  3.876923  3.320197  2.970085  4.427273  4.617647  6.522388  5.972222 
dram[3]:  3.111111  3.266094  3.954315  3.555024  3.323232  4.329114  3.748815  3.404762  3.412500  3.094862  2.640927  2.617424  3.827068  4.330435  6.189189  5.149426 
dram[4]:  4.063219  4.059880  3.728723  3.809783  3.725146  3.890244  3.601064  4.012423  4.389535  3.953608  3.519553  3.289618  4.107438  3.901639  8.708333  9.046512 
dram[5]:  3.439815  3.136719  3.075099  3.159664  3.606557  3.471503  4.048649  3.626794  3.199170  3.258475  3.380711  3.051163  4.263158  4.330357  6.369231  6.115942 
average row locality = 62801/16902 = 3.715596
number of total memory accesses made:
dram[0]:         0         0         0         0         0         0         0         0         0         0         0         0         0         0         0         0 
dram[1]:         0         0         0         0         0         0         0         0         0         0         0         0         0         0         0         0 
dram[2]:         0         0         0         0         0         0         0         0         0         0         0         0         0         0         0         0 
dram[3]:         0         0         0         0         0         0         0         0         0         0         0         0         0         0         0         0 
dram[4]:         0         0         0         0         0         0         0         0         0         0         0         0         0         0         0         0 
dram[5]:         0         0         0         0         0         0         0         0         0         0         0         0         0         0         0         0 
total accesses: 0
min_bank_accesses = 0!
min_chip_accesses = 0!
number of total read accesses:
dram[0]:       492       531       527       531       478       483       602       594       550       569       507       522       432       444       415       426 
dram[1]:       521       542       525       537       526       538       628       629       584       589       539       517       454       462       447       459 
dram[2]:       524       513       514       523       468       494       554       582       556       580       549       573       458       444       434       426 
dram[3]:       534       534       533       518       491       509       598       560       601       589       542       542       472       456       456       445 
dram[4]:       511       495       504       502       490       492       538       520       571       580       520       496       457       439       418       389 
dram[5]:       533       551       570       543       500       513       573       582       583       573       540       528       455       454       412       422 
total reads: 49426
bank skew: 629/389 = 1.62
chip skew: 8497/7922 = 1.07
number of total write accesses:
dram[0]:       173       224       215       211       141       139       158       183       171       209       120       114        29        34         1         2 
dram[1]:       218       240       246       229       171       151       201       183       205       215       162       137        27        41         2         0 
dram[2]:       231       212       217       230       142       143       164       178       176       176       125       122        29        27         3         4 
dram[3]:       222       227       246       225       167       175       193       155       218       194       142       149        37        42         2         3 
dram[4]:       196       183       197       199       147       146       139       126       184       187       110       106        40        37         0         0 
dram[5]:       210       252       208       209       160       157       176       176       188       196       126       128        31        31         2         0 
total reads: 13375
min_bank_accesses = 0!
chip skew: 2428/1997 = 1.22
average mf latency per bank:
dram[0]:       2975      2667      3053      3063      3705      3669      3222      3040      3055      2898      6600      6691     14135     13588     21473     21239
dram[1]:       2741      2703      3020      3134      3450      3568      3061      3169      2995      2944      5938      6852     13745     13553     20685     20814
dram[2]:       2739      2796      3065      2958      3861      3737      3303      3185      3168      3176      6274      6545     13538     14770     20892     21818
dram[3]:       2812      2627      2926      3050      3522      3427      3166      3382      2810      2834      6199      6154     13091     13537     20515     20778
dram[4]:       3734      3014      4169      3195      4870      3731      4784      3689      4016      2885     40918      7359     17820     14541     29393     23836
dram[5]:       2737      2646      2835      3114      3417      3567      3039      3204      2859      3017      6402      6791     13196     14238     21479     21956
maximum mf latency per bank:
dram[0]:        955       869       852       960       928       992       879       953       863       905       908       841       955       928       940      1037
dram[1]:        992       924       938      1010       953       961       951       907       862       915       878       991       981      1016       977       977
dram[2]:        877       907       960       993       932       953       878      1013       883      1000       955       994       862      1095       951       943
dram[3]:       1139      1116       904       973      1038       862      1094       901       936       974       935       946      1064      1074       930       909
dram[4]:        989       957      1112       878      1065      1002      1061       904      1102       913      1120       941      1068      1015      1116       930
dram[5]:        975       920      1126       900       920       842       841       889       898       964       934       953       870      1037       882      1039

Number of Memory Banks Accessed per Memory Operation per Warp (from 0):
0	0	0	0	0	0	0	0	0	0	0	0	0	0	0	0	0	0	0	0	0	0	0	0	0	0	0	0	0	0	0	0	0	0	0	0	0	0	0	0	0	0	0	0	0	0	0	0	0	0	0	0	0	0	0	0	0	0	0	0	0	0	0	0	0	0	0	0	0	0	0	0	0	0	0	0	0	0	0	0	0	0	0	0	0	0	0	0	0	0	0	0	0	0	0	0	
Average # of Memory Banks Accessed per Memory Operation per Warp=-nan

position of mrq chosen
0	0	0	0	0	0	0	0	0	0	0	0	0	0	0	0	

average position of mrq chosen = -nan
Memory Partition 0: 
Cache L2_bank_000:
MSHR contents

Cache L2_bank_001:
MSHR contents

In Dram Latency Queue (total = 0): 
DRAM[0]: 16 bks, busW=4 BL=16 CL=12, tRRD=2 tCCD=6, tRCD=12 tRAS=28 tRP=12 tRC=40
n_cmd=1002903 n_nop=987318 n_act=2687 n_pre=2671 n_req=10227 n_rd=8103 n_write=2124 bw_util=0.04079
n_activity=157640 dram_eff=0.2595
bk0: 492a 995260i bk1: 531a 994055i bk2: 527a 993751i bk3: 531a 994229i bk4: 478a 996774i bk5: 483a 996897i bk6: 602a 994254i bk7: 594a 993581i bk8: 550a 995006i bk9: 569a 994605i bk10: 507a 995732i bk11: 522a 995240i bk12: 432a 998295i bk13: 444a 998016i bk14: 415a 1000475i bk15: 426a 1000138i 
dram_util_bins: 0 0 0 0 0 0 0 0 0 0
dram_eff_bins: 0 0 0 0 0 0 0 0 0 0
mrqq: max=15 avg=0.0387685
Memory Partition 1: 
Cache L2_bank_002:
MSHR contents

Cache L2_bank_003:
MSHR contents

In Dram Latency Queue (total = 0): 
DRAM[1]: 16 bks, busW=4 BL=16 CL=12, tRRD=2 tCCD=6, tRCD=12 tRAS=28 tRP=12 tRC=40
n_cmd=1002903 n_nop=985914 n_act=3040 n_pre=3024 n_req=10925 n_rd=8497 n_write=2428 bw_util=0.04357
n_activity=174738 dram_eff=0.2501
bk0: 521a 995057i bk1: 542a 994342i bk2: 525a 993857i bk3: 537a 993845i bk4: 526a 995309i bk5: 538a 994686i bk6: 628a 992449i bk7: 629a 993203i bk8: 584a 993315i bk9: 589a 993643i bk10: 539a 994820i bk11: 517a 995155i bk12: 454a 997994i bk13: 462a 998135i bk14: 447a 999870i bk15: 459a 1000535i 
dram_util_bins: 0 0 0 0 0 0 0 0 0 0
dram_eff_bins: 0 0 0 0 0 0 0 0 0 0
mrqq: max=11 avg=0.0389459
Memory Partition 2: 
Cache L2_bank_004:
MSHR contents

Cache L2_bank_005:
MSHR contents

In Dram Latency Queue (total = 0): 
DRAM[2]: 16 bks, busW=4 BL=16 CL=12, tRRD=2 tCCD=6, tRCD=12 tRAS=28 tRP=12 tRC=40
n_cmd=1002903 n_nop=987248 n_act=2650 n_pre=2634 n_req=10371 n_rd=8192 n_write=2179 bw_util=0.04136
n_activity=158299 dram_eff=0.2621
bk0: 524a 994158i bk1: 513a 994624i bk2: 514a 994419i bk3: 523a 994384i bk4: 468a 996281i bk5: 494a 996314i bk6: 554a 995365i bk7: 582a 994952i bk8: 556a 995161i bk9: 580a 994832i bk10: 549a 995206i bk11: 573a 994183i bk12: 458a 998463i bk13: 444a 998715i bk14: 434a 1000206i bk15: 426a 1000307i 
dram_util_bins: 0 0 0 0 0 0 0 0 0 0
dram_eff_bins: 0 0 0 0 0 0 0 0 0 0
mrqq: max=16 avg=0.041679
Memory Partition 3: 
Cache L2_bank_006:
MSHR contents

Cache L2_bank_007:
MSHR contents

In Dram Latency Queue (total = 0): 
DRAM[3]: 16 bks, busW=4 BL=16 CL=12, tRRD=2 tCCD=6, tRCD=12 tRAS=28 tRP=12 tRC=40
n_cmd=1002903 n_nop=985974 n_act=3084 n_pre=3068 n_req=10777 n_rd=8380 n_write=2397 bw_util=0.04298
n_activity=174711 dram_eff=0.2467
bk0: 534a 993562i bk1: 534a 993561i bk2: 533a 994299i bk3: 518a 994363i bk4: 491a 995148i bk5: 509a 996205i bk6: 598a 994135i bk7: 560a 994883i bk8: 601a 993229i bk9: 589a 993070i bk10: 542a 993573i bk11: 542a 993348i bk12: 472a 997697i bk13: 456a 998468i bk14: 456a 999993i bk15: 445a 999953i 
dram_util_bins: 0 0 0 0 0 0 0 0 0 0
dram_eff_bins: 0 0 0 0 0 0 0 0 0 0
mrqq: max=13 avg=0.0425953
Memory Partition 4: 
Cache L2_bank_008:
MSHR contents

Cache L2_bank_009:
MSHR contents

In Dram Latency Queue (total = 0): 
DRAM[4]: 16 bks, busW=4 BL=16 CL=12, tRRD=2 tCCD=6, tRCD=12 tRAS=28 tRP=12 tRC=40
n_cmd=1002903 n_nop=988082 n_act=2459 n_pre=2443 n_req=9919 n_rd=7922 n_write=1997 bw_util=0.03956
n_activity=153418 dram_eff=0.2586
bk0: 511a 995664i bk1: 495a 995717i bk2: 504a 995194i bk3: 502a 994968i bk4: 490a 995653i bk5: 492a 996042i bk6: 538a 995282i bk7: 520a 995960i bk8: 571a 994862i bk9: 580a 994463i bk10: 520a 995751i bk11: 496a 995926i bk12: 457a 998111i bk13: 439a 998021i bk14: 418a 1000684i bk15: 389a 1000888i 
dram_util_bins: 0 0 0 0 0 0 0 0 0 0
dram_eff_bins: 0 0 0 0 0 0 0 0 0 0
mrqq: max=16 avg=0.0432494
Memory Partition 5: 
Cache L2_bank_010:
MSHR contents

Cache L2_bank_011:
MSHR contents

In Dram Latency Queue (total = 0): 
DRAM[5]: 16 bks, busW=4 BL=16 CL=12, tRRD=2 tCCD=6, tRCD=12 tRAS=28 tRP=12 tRC=40
n_cmd=1002903 n_nop=986373 n_act=2982 n_pre=2966 n_req=10582 n_rd=8332 n_write=2250 bw_util=0.04221
n_activity=169850 dram_eff=0.2492
bk0: 533a 994504i bk1: 551a 992755i bk2: 570a 993093i bk3: 543a 993373i bk4: 500a 995273i bk5: 513a 995393i bk6: 573a 994839i bk7: 582a 994433i bk8: 583a 993438i bk9: 573a 993255i bk10: 540a 995418i bk11: 528a 994826i bk12: 455a 998350i bk13: 454a 998644i bk14: 412a 1000411i bk15: 422a 1000372i 
dram_util_bins: 0 0 0 0 0 0 0 0 0 0
dram_eff_bins: 0 0 0 0 0 0 0 0 0 0
mrqq: max=16 avg=0.0405094

========= L2 cache stats =========
L2_cache_bank[0]: Access = 82112, Miss = 4003, Miss_rate = 0.049, Pending_hits = 22, Reservation_fails = 296
L2_cache_bank[1]: Access = 82539, Miss = 4100, Miss_rate = 0.050, Pending_hits = 16, Reservation_fails = 1
L2_cache_bank[2]: Access = 81974, Miss = 4224, Miss_rate = 0.052, Pending_hits = 22, Reservation_fails = 108
L2_cache_bank[3]: Access = 83248, Miss = 4273, Miss_rate = 0.051, Pending_hits = 14, Reservation_fails = 1
L2_cache_bank[4]: Access = 81733, Miss = 4057, Miss_rate = 0.050, Pending_hits = 9, Reservation_fails = 40
L2_cache_bank[5]: Access = 82939, Miss = 4135, Miss_rate = 0.050, Pending_hits = 14, Reservation_fails = 0
L2_cache_bank[6]: Access = 82708, Miss = 4227, Miss_rate = 0.051, Pending_hits = 13, Reservation_fails = 2
L2_cache_bank[7]: Access = 82921, Miss = 4153, Miss_rate = 0.050, Pending_hits = 8, Reservation_fails = 0
L2_cache_bank[8]: Access = 122489, Miss = 4009, Miss_rate = 0.033, Pending_hits = 16, Reservation_fails = 337
L2_cache_bank[9]: Access = 83347, Miss = 3913, Miss_rate = 0.047, Pending_hits = 8, Reservation_fails = 103
L2_cache_bank[10]: Access = 82656, Miss = 4166, Miss_rate = 0.050, Pending_hits = 15, Reservation_fails = 73
L2_cache_bank[11]: Access = 83581, Miss = 4166, Miss_rate = 0.050, Pending_hits = 11, Reservation_fails = 0
L2_total_cache_accesses = 1032247
L2_total_cache_misses = 49426
L2_total_cache_miss_rate = 0.0479
L2_total_cache_pending_hits = 168
L2_total_cache_reservation_fails = 961
L2_total_cache_breakdown:
	L2_cache_stats_breakdown[GLOBAL_ACC_R][HIT] = 576913
	L2_cache_stats_breakdown[GLOBAL_ACC_R][HIT_RESERVED] = 30
	L2_cache_stats_breakdown[GLOBAL_ACC_R][MISS] = 42460
	L2_cache_stats_breakdown[GLOBAL_ACC_R][RESERVATION_FAIL] = 619
	L2_cache_stats_breakdown[CONST_ACC_R][HIT] = 11
	L2_cache_stats_breakdown[CONST_ACC_R][HIT_RESERVED] = 3
	L2_cache_stats_breakdown[CONST_ACC_R][MISS] = 1
	L2_cache_stats_breakdown[CONST_ACC_R][RESERVATION_FAIL] = 114
	L2_cache_stats_breakdown[GLOBAL_ACC_W][HIT] = 405679
	L2_cache_stats_breakdown[GLOBAL_ACC_W][HIT_RESERVED] = 129
	L2_cache_stats_breakdown[GLOBAL_ACC_W][MISS] = 6961
	L2_cache_stats_breakdown[GLOBAL_ACC_W][RESERVATION_FAIL] = 8
	L2_cache_stats_breakdown[INST_ACC_R][HIT] = 50
	L2_cache_stats_breakdown[INST_ACC_R][HIT_RESERVED] = 6
	L2_cache_stats_breakdown[INST_ACC_R][MISS] = 4
	L2_cache_stats_breakdown[INST_ACC_R][RESERVATION_FAIL] = 220
L2_cache_data_port_util = 0.300
L2_cache_fill_port_util = 0.022

icnt_total_pkts_mem_to_simt=3510129
icnt_total_pkts_simt_to_mem=1445632
LD_mem_lat_dist  0 0 0 0 0 0 0 0 0 0 0 0 0 0 0 0 0 0 0 0 0 0 0 0 0 0 0
ST_mem_lat_dist  0 0 0 0 0 0 0 0 0 0 0 0 0 0 0 0 0 0 0 0 0 0 0 0 0 0 0
----------------------------Interconnect-DETAILS--------------------------------
Class 0:
Packet latency average = 9.90204
	minimum = 6
	maximum = 38
Network latency average = 9.18673
	minimum = 6
	maximum = 33
Slowest packet = 2063748
Flit latency average = 7.72211
	minimum = 6
	maximum = 29
Slowest flit = 4953326
Fragmentation average = 0
	minimum = 0
	maximum = 0
Injected packet rate average = 0.025382
	minimum = 0.020979 (at node 7)
	maximum = 0.0307692 (at node 23)
Accepted packet rate average = 0.025382
	minimum = 0.020979 (at node 7)
	maximum = 0.0307692 (at node 23)
Injected flit rate average = 0.0761461
	minimum = 0.020979 (at node 7)
	maximum = 0.153846 (at node 23)
Accepted flit rate average= 0.0761461
	minimum = 0.0265734 (at node 21)
	maximum = 0.125874 (at node 4)
Injected packet length average = 3
Accepted packet length average = 3
Total in-flight flits = 0 (0 measured)
====== Overall Traffic Statistics ======
====== Traffic class 0 ======
Packet latency average = 32.5442 (9 samples)
	minimum = 6 (9 samples)
	maximum = 296 (9 samples)
Network latency average = 21.2512 (9 samples)
	minimum = 6 (9 samples)
	maximum = 245.222 (9 samples)
Flit latency average = 16.0599 (9 samples)
	minimum = 6 (9 samples)
	maximum = 242.333 (9 samples)
Fragmentation average = 0.0299902 (9 samples)
	minimum = 0 (9 samples)
	maximum = 158.667 (9 samples)
Injected packet rate average = 0.052471 (9 samples)
	minimum = 0.0411235 (9 samples)
	maximum = 0.0946245 (9 samples)
Accepted packet rate average = 0.052471 (9 samples)
	minimum = 0.0411235 (9 samples)
	maximum = 0.0946245 (9 samples)
Injected flit rate average = 0.130642 (9 samples)
	minimum = 0.0541843 (9 samples)
	maximum = 0.25488 (9 samples)
Accepted flit rate average = 0.130642 (9 samples)
	minimum = 0.070059 (9 samples)
	maximum = 0.223424 (9 samples)
Injected packet size average = 2.48979 (9 samples)
Accepted packet size average = 2.48979 (9 samples)
Hops average = 1 (9 samples)
----------------------------END-of-Interconnect-DETAILS-------------------------


gpgpu_simulation_time = 0 days, 0 hrs, 6 min, 29 sec (389 sec)
gpgpu_simulation_rate = 43212 (inst/sec)
gpgpu_simulation_rate = 1953 (cycle/sec)
GPGPU-Sim: synchronize waiting for inactive GPU simulation
GPGPU-Sim API: Stream Manager State
GPGPU-Sim: detected inactive GPU simulation thread
Kernel Executed 9 times
Processing time: 387572.812500 (ms)
Result stored in result.txt
