

        *** GPGPU-Sim Simulator Version 3.2.2  [build 0] ***


GPGPU-Sim PTX: simulation mode 0 (can change with PTX_SIM_MODE_FUNC environment variable:
               1=functional simulation only, 0=detailed performance simulator)
GPGPU-Sim: Configuration options:

-network_mode                           1 # Interconnection network mode
-inter_config_file   config_fermi_islip.icnt # Interconnection network config file
-gpgpu_ptx_use_cuobjdump                    1 # Use cuobjdump to extract ptx and sass from binaries
-gpgpu_experimental_lib_support                    0 # Try to extract code from cuda libraries [Broken because of unknown cudaGetExportTable]
-gpgpu_ptx_convert_to_ptxplus                    0 # Convert SASS (native ISA) to ptxplus and run ptxplus
-gpgpu_ptx_force_max_capability                   20 # Force maximum compute capability
-gpgpu_ptx_inst_debug_to_file                    0 # Dump executed instructions' debug information to file
-gpgpu_ptx_inst_debug_file       inst_debug.txt # Executed instructions' debug output file
-gpgpu_ptx_inst_debug_thread_uid                    1 # Thread UID for executed instructions' debug output
-gpgpu_simd_model                       1 # 1 = post-dominator
-gpgpu_shader_core_pipeline              1536:32 # shader core pipeline config, i.e., {<nthread>:<warpsize>}
-gpgpu_tex_cache:l1  4:128:24,L:R:m:N:L,F:128:4,128:2 # per-shader L1 texture cache  (READ-ONLY) config  {<nsets>:<bsize>:<assoc>,<rep>:<wr>:<alloc>:<wr_alloc>,<mshr>:<N>:<merge>,<mq>:<rf>}
-gpgpu_const_cache:l1 64:64:2,L:R:f:N:L,A:2:32,4 # per-shader L1 constant memory cache  (READ-ONLY) config  {<nsets>:<bsize>:<assoc>,<rep>:<wr>:<alloc>:<wr_alloc>,<mshr>:<N>:<merge>,<mq>} 
-gpgpu_cache:il1     4:128:4,L:R:f:N:L,A:2:32,4 # shader L1 instruction cache config  {<nsets>:<bsize>:<assoc>,<rep>:<wr>:<alloc>:<wr_alloc>,<mshr>:<N>:<merge>,<mq>} 
-gpgpu_cache:dl1     32:128:4,L:L:m:N:H,A:32:8,8 # per-shader L1 data cache config  {<nsets>:<bsize>:<assoc>,<rep>:<wr>:<alloc>:<wr_alloc>,<mshr>:<N>:<merge>,<mq> | none}
-gpgpu_cache:dl1PrefL1                 none # per-shader L1 data cache config  {<nsets>:<bsize>:<assoc>,<rep>:<wr>:<alloc>:<wr_alloc>,<mshr>:<N>:<merge>,<mq> | none}
-gpgpu_cache:dl1PreShared                 none # per-shader L1 data cache config  {<nsets>:<bsize>:<assoc>,<rep>:<wr>:<alloc>:<wr_alloc>,<mshr>:<N>:<merge>,<mq> | none}
-gmem_skip_L1D                          0 # global memory access skip L1D cache (implements -Xptxas -dlcm=cg, default=no skip)
-gpgpu_perfect_mem                      0 # enable perfect memory mode (no cache miss)
-n_regfile_gating_group                    4 # group of lanes that should be read/written together)
-gpgpu_clock_gated_reg_file                    0 # enable clock gated reg file for power calculations
-gpgpu_clock_gated_lanes                    0 # enable clock gated lanes for power calculations
-gpgpu_shader_registers                32768 # Number of registers per shader core. Limits number of concurrent CTAs. (default 8192)
-gpgpu_shader_cta                       8 # Maximum number of concurrent CTAs in shader (default 8)
-gpgpu_num_cta_barriers                   16 # Maximum number of named barriers per CTA (default 16)
-gpgpu_n_clusters                      15 # number of processing clusters
-gpgpu_n_cores_per_cluster                    1 # number of simd cores per cluster
-gpgpu_n_cluster_ejection_buffer_size                    8 # number of packets in ejection buffer
-gpgpu_n_ldst_response_buffer_size                    2 # number of response packets in ld/st unit ejection buffer
-gpgpu_shmem_size                   16384 # Size of shared memory per shader core (default 16kB)
-gpgpu_shmem_size                   49152 # Size of shared memory per shader core (default 16kB)
-gpgpu_shmem_size_PrefL1                16384 # Size of shared memory per shader core (default 16kB)
-gpgpu_shmem_size_PrefShared                16384 # Size of shared memory per shader core (default 16kB)
-gpgpu_shmem_num_banks                   32 # Number of banks in the shared memory in each shader core (default 16)
-gpgpu_shmem_limited_broadcast                    0 # Limit shared memory to do one broadcast per cycle (default on)
-gpgpu_shmem_warp_parts                    1 # Number of portions a warp is divided into for shared memory bank conflict check 
-gpgpu_warpdistro_shader                   -1 # Specify which shader core to collect the warp size distribution from
-gpgpu_warp_issue_shader                    0 # Specify which shader core to collect the warp issue distribution from
-gpgpu_local_mem_map                    1 # Mapping from local memory space address to simulated GPU physical address space (default = enabled)
-gpgpu_num_reg_banks                   16 # Number of register banks (default = 8)
-gpgpu_reg_bank_use_warp_id                    0 # Use warp ID in mapping registers to banks (default = off)
-gpgpu_operand_collector_num_units_sp                    6 # number of collector units (default = 4)
-gpgpu_operand_collector_num_units_sfu                    8 # number of collector units (default = 4)
-gpgpu_operand_collector_num_units_mem                    2 # number of collector units (default = 2)
-gpgpu_operand_collector_num_units_gen                    0 # number of collector units (default = 0)
-gpgpu_operand_collector_num_in_ports_sp                    2 # number of collector unit in ports (default = 1)
-gpgpu_operand_collector_num_in_ports_sfu                    1 # number of collector unit in ports (default = 1)
-gpgpu_operand_collector_num_in_ports_mem                    1 # number of collector unit in ports (default = 1)
-gpgpu_operand_collector_num_in_ports_gen                    0 # number of collector unit in ports (default = 0)
-gpgpu_operand_collector_num_out_ports_sp                    2 # number of collector unit in ports (default = 1)
-gpgpu_operand_collector_num_out_ports_sfu                    1 # number of collector unit in ports (default = 1)
-gpgpu_operand_collector_num_out_ports_mem                    1 # number of collector unit in ports (default = 1)
-gpgpu_operand_collector_num_out_ports_gen                    0 # number of collector unit in ports (default = 0)
-gpgpu_coalesce_arch                   13 # Coalescing arch (default = 13, anything else is off for now)
-gpgpu_num_sched_per_core                    2 # Number of warp schedulers per core
-gpgpu_max_insn_issue_per_warp                    1 # Max number of instructions that can be issued per warp in one cycle by scheduler
-gpgpu_simt_core_sim_order                    1 # Select the simulation order of cores in a cluster (0=Fix, 1=Round-Robin)
-gpgpu_pipeline_widths        2,1,1,2,1,1,2 # Pipeline widths ID_OC_SP,ID_OC_SFU,ID_OC_MEM,OC_EX_SP,OC_EX_SFU,OC_EX_MEM,EX_WB
-gpgpu_num_sp_units                     2 # Number of SP units (default=1)
-gpgpu_num_sfu_units                    1 # Number of SF units (default=1)
-gpgpu_num_mem_units                    1 # Number if ldst units (default=1) WARNING: not hooked up to anything
-gpgpu_scheduler                      gto # Scheduler configuration: < lrr | gto | two_level_active > If two_level_active:<num_active_warps>:<inner_prioritization>:<outer_prioritization>For complete list of prioritization values see shader.h enum scheduler_prioritization_typeDefault: gto
-gpgpu_dram_scheduler                    1 # 0 = fifo, 1 = FR-FCFS (defaul)
-gpgpu_dram_partition_queues              8:8:8:8 # i2$:$2d:d2$:$2i
-l2_ideal                               0 # Use a ideal L2 cache that always hit
-gpgpu_cache:dl2     64:128:8,L:B:m:W:L,A:32:4,4:0,32 # unified banked L2 data cache config  {<nsets>:<bsize>:<assoc>,<rep>:<wr>:<alloc>:<wr_alloc>,<mshr>:<N>:<merge>,<mq>}
-gpgpu_cache:dl2_texture_only                    0 # L2 cache used for texture only
-gpgpu_n_mem                            6 # number of memory modules (e.g. memory controllers) in gpu
-gpgpu_n_sub_partition_per_mchannel                    2 # number of memory subpartition in each memory module
-gpgpu_n_mem_per_ctrlr                    2 # number of memory chips per memory controller
-gpgpu_memlatency_stat                   14 # track and display latency statistics 0x2 enables MC, 0x4 enables queue logs
-gpgpu_frfcfs_dram_sched_queue_size                   16 # 0 = unlimited (default); # entries per chip
-gpgpu_dram_return_queue_size                  116 # 0 = unlimited (default); # entries per chip
-gpgpu_dram_buswidth                    4 # default = 4 bytes (8 bytes per cycle at DDR)
-gpgpu_dram_burst_length                    2 # Burst length of each DRAM request (default = 4 data bus cycle)
-dram_data_command_freq_ratio                    4 # Frequency ratio between DRAM data bus and command bus (default = 2 times, i.e. DDR)
-gpgpu_dram_timing_opt nbk=16:CCD=2:RRD=6:RCD=12:RAS=28:RP=12:RC=40: CL=12:WL=4:CDLR=5:WR=12:nbkgrp=4:CCDL=3:RTPL=2 # DRAM timing parameters = {nbk:tCCD:tRRD:tRCD:tRAS:tRP:tRC:CL:WL:tCDLR:tWR:nbkgrp:tCCDL:tRTPL}
-rop_latency                          120 # ROP queue latency (default 85)
-dram_latency                         100 # DRAM latency (default 30)
-gpgpu_mem_addr_mapping dramid@8;00000000.00000000.00000000.00000000.0000RRRR.RRRRRRRR.BBBCCCCB.CCSSSSSS # mapping memory address to dram model {dramid@<start bit>;<memory address map>}
-gpgpu_mem_addr_test                    0 # run sweep test to check address mapping for aliased address
-gpgpu_mem_address_mask                    1 # 0 = old addressing mask, 1 = new addressing mask, 2 = new add. mask + flipped bank sel and chip sel bits
-gpuwattch_xml_file  gpuwattch_gtx480.xml # GPUWattch XML file
-power_simulation_enabled                    0 # Turn on power simulator (1=On, 0=Off)
-power_per_cycle_dump                    0 # Dump detailed power output each cycle
-power_trace_enabled                    0 # produce a file for the power trace (1=On, 0=Off)
-power_trace_zlevel                     6 # Compression level of the power trace output log (0=no comp, 9=highest)
-steady_power_levels_enabled                    0 # produce a file for the steady power levels (1=On, 0=Off)
-steady_state_definition                  8:4 # allowed deviation:number of samples
-gpgpu_max_cycle                        0 # terminates gpu simulation early (0 = no limit)
-gpgpu_max_insn                         0 # terminates gpu simulation early (0 = no limit)
-gpgpu_max_cta                          0 # terminates gpu simulation early (0 = no limit)
-gpgpu_runtime_stat                   500 # display runtime statistics such as dram utilization {<freq>:<flag>}
-liveness_message_freq                    1 # Minimum number of seconds between simulation liveness messages (0 = always print)
-gpgpu_flush_l1_cache                    0 # Flush L1 cache at the end of each kernel call
-gpgpu_flush_l2_cache                    0 # Flush L2 cache at the end of each kernel call
-gpgpu_deadlock_detect                    1 # Stop the simulation at deadlock (1=on (default), 0=off)
-gpgpu_ptx_instruction_classification                    0 # if enabled will classify ptx instruction types per kernel (Max 255 kernels now)
-gpgpu_ptx_sim_mode                     0 # Select between Performance (default) or Functional simulation (1)
-gpgpu_clock_domains 700.0:700.0:700.0:924.0 # Clock Domain Frequencies in MhZ {<Core Clock>:<ICNT Clock>:<L2 Clock>:<DRAM Clock>}
-gpgpu_max_concurrent_kernel                    8 # maximum kernels that can run concurrently on GPU
-gpgpu_cflog_interval                    0 # Interval between each snapshot in control flow logger
-visualizer_enabled                     0 # Turn on visualizer output (1=On, 0=Off)
-visualizer_outputfile                 NULL # Specifies the output log file for visualizer
-visualizer_zlevel                      6 # Compression level of the visualizer output log (0=no comp, 9=highest)
-trace_enabled                          0 # Turn on traces
-trace_components                    none # comma seperated list of traces to enable. Complete list found in trace_streams.tup. Default none
-trace_sampling_core                    0 # The core which is printed using CORE_DPRINTF. Default 0
-trace_sampling_memory_partition                   -1 # The memory partition which is printed using MEMPART_DPRINTF. Default -1 (i.e. all)
-enable_ptx_file_line_stats                    1 # Turn on PTX source line statistic profiling. (1 = On)
-ptx_line_stats_filename gpgpu_inst_stats.txt # Output file for PTX source line statistics.
-save_embedded_ptx                      0 # saves ptx files embedded in binary as <n>.ptx
-keep                                   0 # keep intermediate files created by GPGPU-Sim when interfacing with external programs
-gpgpu_ptx_save_converted_ptxplus                    0 # Saved converted ptxplus to a file
-ptx_opcode_latency_int         4,13,4,5,145 # Opcode latencies for integers <ADD,MAX,MUL,MAD,DIV>Default 1,1,19,25,145
-ptx_opcode_latency_fp          4,13,4,5,39 # Opcode latencies for single precision floating points <ADD,MAX,MUL,MAD,DIV>Default 1,1,1,1,30
-ptx_opcode_latency_dp         8,19,8,8,330 # Opcode latencies for double precision floating points <ADD,MAX,MUL,MAD,DIV>Default 8,8,8,8,335
-ptx_opcode_initiation_int            1,2,2,1,8 # Opcode initiation intervals for integers <ADD,MAX,MUL,MAD,DIV>Default 1,1,4,4,32
-ptx_opcode_initiation_fp            1,2,1,1,4 # Opcode initiation intervals for single precision floating points <ADD,MAX,MUL,MAD,DIV>Default 1,1,1,1,5
-ptx_opcode_initiation_dp         8,16,8,8,130 # Opcode initiation intervals for double precision floating points <ADD,MAX,MUL,MAD,DIV>Default 8,8,8,8,130
DRAM Timing Options:
nbk                                    16 # number of banks
CCD                                     2 # column to column delay
RRD                                     6 # minimal delay between activation of rows in different banks
RCD                                    12 # row to column delay
RAS                                    28 # time needed to activate row
RP                                     12 # time needed to precharge (deactivate) row
RC                                     40 # row cycle time
CDLR                                    5 # switching from write to read (changes tWTR)
WR                                     12 # last data-in to row precharge
CL                                     12 # CAS latency
WL                                      4 # Write latency
nbkgrp                                  4 # number of bank groups
CCDL                                    3 # column to column delay between accesses to different bank groups
RTPL                                    2 # read to precharge delay between accesses to different bank groups
Total number of memory sub partition = 12
addr_dec_mask[CHIP]  = 0000000000000000 	high:64 low:0
addr_dec_mask[BK]    = 000000000000e100 	high:16 low:8
addr_dec_mask[ROW]   = 000000000fff0000 	high:28 low:16
addr_dec_mask[COL]   = 0000000000001eff 	high:13 low:0
addr_dec_mask[BURST] = 000000000000003f 	high:6 low:0
sub_partition_id_mask = 0000000000000100
GPGPU-Sim uArch: clock freqs: 700000000.000000:700000000.000000:700000000.000000:924000000.000000
GPGPU-Sim uArch: clock periods: 0.00000000142857142857:0.00000000142857142857:0.00000000142857142857:0.00000000108225108225
*** Initializing Memory Statistics ***
GPGPU-Sim uArch: interconnect node map (shaderID+MemID to icntID)
GPGPU-Sim uArch: Memory nodes ID start from index: 15
GPGPU-Sim uArch:    0   1   2   3   4
GPGPU-Sim uArch:    5   6   7   8   9
GPGPU-Sim uArch:   10  11  12  13  14
GPGPU-Sim uArch:   15  16  17  18  19
GPGPU-Sim uArch:   20  21  22  23  24
GPGPU-Sim uArch:   25  26
GPGPU-Sim uArch: interconnect node reverse map (icntID to shaderID+MemID)
GPGPU-Sim uArch: Memory nodes start from ID: 15
GPGPU-Sim uArch:    0   1   2   3   4
GPGPU-Sim uArch:    5   6   7   8   9
GPGPU-Sim uArch:   10  11  12  13  14
GPGPU-Sim uArch:   15  16  17  18  19
GPGPU-Sim uArch:   20  21  22  23  24
GPGPU-Sim uArch:   25  26
316bcbff5f8f022bb22b20bb4721e93e  /sciclone/data20/adwait/applications/benchmarks/CUDA/RAY/gpgpu_ptx_sim__RAY
GPGPU-Sim uArch: performance model initialization complete.
GPGPU-Sim PTX: __cudaRegisterFatBinary, fat_cubin_handle = 1, filename=rayTracing.cu
self exe links to: /sciclone/data20/adwait/applications/benchmarks/CUDA/RAY/gpgpu_ptx_sim__RAY
Running md5sum using "md5sum /sciclone/data20/adwait/applications/benchmarks/CUDA/RAY/gpgpu_ptx_sim__RAY "
Parsing file _cuobjdump_complete_output_4JSeEA
######### cuobjdump parser ########
## Adding new section ELF
Adding arch: sm_20
Adding identifier: rayTracing.cu
## Adding new section PTX
Adding ptx filename: _cuobjdump_1.ptx
Adding arch: sm_20
Adding identifier: rayTracing.cu
Done parsing!!!
GPGPU-Sim PTX: __cudaRegisterFunction _Z6renderPjP4Nodejjff : hostFun 0x0x40ce13, fat_cubin_handle = 1
GPGPU-Sim PTX: allocating stack frame region for .param "__cudaretf__Zmi6float3S_" from 0x0 to 0xc
GPGPU-Sim PTX: allocating stack frame region for .param "__cudaparmf1__Zmi6float3S_" from 0xc to 0x18
GPGPU-Sim PTX: allocating stack frame region for .param "__cudaparmf2__Zmi6float3S_" from 0x18 to 0x24
GPGPU-Sim PTX: allocating stack frame region for .param "__cudaretf__Z9normalize6float3" from 0x0 to 0xc
GPGPU-Sim PTX: allocating stack frame region for .param "__cudaparmf1__Z9normalize6float3" from 0xc to 0x18
GPGPU-Sim PTX: allocating stack frame region for .param "__cudaretf__Z18intersectionSphere5Rayon6float3f" from 0x0 to 0x4
GPGPU-Sim PTX: allocating stack frame region for .param "__cudaparmf1__Z18intersectionSphere5Rayon6float3f" from 0x4 to 0x1c
GPGPU-Sim PTX: allocating stack frame region for .param "__cudaparmf2__Z18intersectionSphere5Rayon6float3f" from 0x1c to 0x28
GPGPU-Sim PTX: allocating stack frame region for .param "__cudaparmf3__Z18intersectionSphere5Rayon6float3f" from 0x28 to 0x2c
GPGPU-Sim PTX: allocating stack frame region for .param "__cudaretf__Z16intersectionPlan5Rayon6float3S0_" from 0x0 to 0x4
GPGPU-Sim PTX: allocating stack frame region for .param "__cudaparmf1__Z16intersectionPlan5Rayon6float3S0_" from 0x4 to 0x1c
GPGPU-Sim PTX: allocating stack frame region for .param "__cudaparmf2__Z16intersectionPlan5Rayon6float3S0_" from 0x1c to 0x28
GPGPU-Sim PTX: allocating stack frame region for .param "__cudaparmf3__Z16intersectionPlan5Rayon6float3S0_" from 0x28 to 0x34
GPGPU-Sim PTX: allocating stack frame region for .param "__cudaretf__Z10getNormale6float3S_" from 0x0 to 0xc
GPGPU-Sim PTX: allocating stack frame region for .param "__cudaparmf1__Z10getNormale6float3S_" from 0xc to 0x18
GPGPU-Sim PTX: allocating stack frame region for .param "__cudaparmf2__Z10getNormale6float3S_" from 0x18 to 0x24
GPGPU-Sim PTX: allocating stack frame region for .param "__cudaretf__Z11getNormaleP6float3" from 0x0 to 0xc
GPGPU-Sim PTX: allocating stack frame region for .param "__cudaparmf1__Z11getNormaleP6float3" from 0xc to 0x18
GPGPU-Sim PTX: allocating stack frame region for .param "__cudaretf__Z14rgbaFloatToInt6float4" from 0x0 to 0x4
GPGPU-Sim PTX: allocating stack frame region for .param "__cudaparmf1__Z14rgbaFloatToInt6float4" from 0x4 to 0x14
GPGPU-Sim PTX: allocating stack frame region for .param "__cudaretf__Z12notShadowRayP4Node6float3S1_f" from 0x0 to 0x4
GPGPU-Sim PTX: allocating stack frame region for .param "__cudaparmf1__Z12notShadowRayP4Node6float3S1_f" from 0x4 to 0xc
GPGPU-Sim PTX: allocating stack frame region for .param "__cudaparmf2__Z12notShadowRayP4Node6float3S1_f" from 0xc to 0x18
GPGPU-Sim PTX: allocating stack frame region for .param "__cudaparmf3__Z12notShadowRayP4Node6float3S1_f" from 0x18 to 0x24
GPGPU-Sim PTX: allocating stack frame region for .param "__cudaparmf4__Z12notShadowRayP4Node6float3S1_f" from 0x24 to 0x28
GPGPU-Sim PTX: allocating stack frame region for .param "__cudaretf__Z15float2int_pow20f" from 0x0 to 0x4
GPGPU-Sim PTX: allocating stack frame region for .param "__cudaparmf1__Z15float2int_pow20f" from 0x4 to 0x8
GPGPU-Sim PTX: allocating stack frame region for .param "__cudaretf__Z15float2int_pow50f" from 0x0 to 0x4
GPGPU-Sim PTX: allocating stack frame region for .param "__cudaparmf1__Z15float2int_pow50f" from 0x4 to 0x8
GPGPU-Sim PTX: allocating stack frame region for .param "__cudaparmf1__ZN4dim3C1Ejjj" from 0x0 to 0x8
GPGPU-Sim PTX: allocating stack frame region for .param "__cudaparmf2__ZN4dim3C1Ejjj" from 0x8 to 0xc
GPGPU-Sim PTX: allocating stack frame region for .param "__cudaparmf3__ZN4dim3C1Ejjj" from 0xc to 0x10
GPGPU-Sim PTX: allocating stack frame region for .param "__cudaparmf4__ZN4dim3C1Ejjj" from 0x10 to 0x14
GPGPU-Sim PTX: instruction assembly for function '_Zmi6float3S_'...   done.
GPGPU-Sim PTX: finding reconvergence points for '_Zmi6float3S_'...
GPGPU-Sim PTX: Finding dominators for '_Zmi6float3S_'...
GPGPU-Sim PTX: Finding immediate dominators for '_Zmi6float3S_'...
GPGPU-Sim PTX: Finding postdominators for '_Zmi6float3S_'...
GPGPU-Sim PTX: Finding immediate postdominators for '_Zmi6float3S_'...
GPGPU-Sim PTX: pre-decoding instructions for '_Zmi6float3S_'...
GPGPU-Sim PTX: reconvergence points for _Zmi6float3S_...
GPGPU-Sim PTX: ... end of reconvergence points for _Zmi6float3S_
GPGPU-Sim PTX: ... done pre-decoding instructions for '_Zmi6float3S_'.
GPGPU-Sim PTX: instruction assembly for function '_Z9normalize6float3'...   done.
GPGPU-Sim PTX: finding reconvergence points for '_Z9normalize6float3'...
GPGPU-Sim PTX: Finding dominators for '_Z9normalize6float3'...
GPGPU-Sim PTX: Finding immediate dominators for '_Z9normalize6float3'...
GPGPU-Sim PTX: Finding postdominators for '_Z9normalize6float3'...
GPGPU-Sim PTX: Finding immediate postdominators for '_Z9normalize6float3'...
GPGPU-Sim PTX: pre-decoding instructions for '_Z9normalize6float3'...
GPGPU-Sim PTX: reconvergence points for _Z9normalize6float3...
GPGPU-Sim PTX: ... end of reconvergence points for _Z9normalize6float3
GPGPU-Sim PTX: ... done pre-decoding instructions for '_Z9normalize6float3'.
GPGPU-Sim PTX: instruction assembly for function '_Z18intersectionSphere5Rayon6float3f'...   done.
GPGPU-Sim PTX: finding reconvergence points for '_Z18intersectionSphere5Rayon6float3f'...
GPGPU-Sim PTX: Finding dominators for '_Z18intersectionSphere5Rayon6float3f'...
GPGPU-Sim PTX: Finding immediate dominators for '_Z18intersectionSphere5Rayon6float3f'...
GPGPU-Sim PTX: Finding postdominators for '_Z18intersectionSphere5Rayon6float3f'...
GPGPU-Sim PTX: Finding immediate postdominators for '_Z18intersectionSphere5Rayon6float3f'...
GPGPU-Sim PTX: pre-decoding instructions for '_Z18intersectionSphere5Rayon6float3f'...
GPGPU-Sim PTX: reconvergence points for _Z18intersectionSphere5Rayon6float3f...
GPGPU-Sim PTX:  1 (potential) branch divergence @  PC=0x250 (_1.ptx:173) @%p2 bra $Lt_2_3074;
GPGPU-Sim PTX:    immediate post dominator      @  PC=0x2c0 (_1.ptx:193) mov.f32 %f39, %f32;
GPGPU-Sim PTX:  2 (potential) branch divergence @  PC=0x260 (_1.ptx:175) bra.uni $Lt_2_2818;
GPGPU-Sim PTX:    immediate post dominator      @  PC=0x2c0 (_1.ptx:193) mov.f32 %f39, %f32;
GPGPU-Sim PTX:  3 (potential) branch divergence @  PC=0x280 (_1.ptx:180) @!%p3 bra $Lt_2_3586;
GPGPU-Sim PTX:    immediate post dominator      @  PC=0x2c0 (_1.ptx:193) mov.f32 %f39, %f32;
GPGPU-Sim PTX:  4 (potential) branch divergence @  PC=0x290 (_1.ptx:182) bra.uni $Lt_2_3330;
GPGPU-Sim PTX:    immediate post dominator      @  PC=0x2c0 (_1.ptx:193) mov.f32 %f39, %f32;
GPGPU-Sim PTX: ... end of reconvergence points for _Z18intersectionSphere5Rayon6float3f
GPGPU-Sim PTX: ... done pre-decoding instructions for '_Z18intersectionSphere5Rayon6float3f'.
GPGPU-Sim PTX: instruction assembly for function '_Z16intersectionPlan5Rayon6float3S0_'...   done.
GPGPU-Sim PTX: finding reconvergence points for '_Z16intersectionPlan5Rayon6float3S0_'...
GPGPU-Sim PTX: Finding dominators for '_Z16intersectionPlan5Rayon6float3S0_'...
GPGPU-Sim PTX: Finding immediate dominators for '_Z16intersectionPlan5Rayon6float3S0_'...
GPGPU-Sim PTX: Finding postdominators for '_Z16intersectionPlan5Rayon6float3S0_'...
GPGPU-Sim PTX: Finding immediate postdominators for '_Z16intersectionPlan5Rayon6float3S0_'...
GPGPU-Sim PTX: pre-decoding instructions for '_Z16intersectionPlan5Rayon6float3S0_'...
GPGPU-Sim PTX: reconvergence points for _Z16intersectionPlan5Rayon6float3S0_...
GPGPU-Sim PTX:  1 (potential) branch divergence @  PC=0x320 (_1.ptx:214) @!%p1 bra $Lt_3_2050;
GPGPU-Sim PTX:    immediate post dominator      @  PC=0x368 (_1.ptx:227) mov.f32 %f14, %f9;
GPGPU-Sim PTX:  2 (potential) branch divergence @  PC=0x330 (_1.ptx:216) bra.uni $Lt_3_1794;
GPGPU-Sim PTX:    immediate post dominator      @  PC=0x368 (_1.ptx:227) mov.f32 %f14, %f9;
GPGPU-Sim PTX: ... end of reconvergence points for _Z16intersectionPlan5Rayon6float3S0_
GPGPU-Sim PTX: ... done pre-decoding instructions for '_Z16intersectionPlan5Rayon6float3S0_'.
GPGPU-Sim PTX: instruction assembly for function '_Z10getNormale6float3S_'...   done.
GPGPU-Sim PTX: finding reconvergence points for '_Z10getNormale6float3S_'...
GPGPU-Sim PTX: Finding dominators for '_Z10getNormale6float3S_'...
GPGPU-Sim PTX: Finding immediate dominators for '_Z10getNormale6float3S_'...
GPGPU-Sim PTX: Finding postdominators for '_Z10getNormale6float3S_'...
GPGPU-Sim PTX: Finding immediate postdominators for '_Z10getNormale6float3S_'...
GPGPU-Sim PTX: pre-decoding instructions for '_Z10getNormale6float3S_'...
GPGPU-Sim PTX: reconvergence points for _Z10getNormale6float3S_...
GPGPU-Sim PTX: ... end of reconvergence points for _Z10getNormale6float3S_
GPGPU-Sim PTX: ... done pre-decoding instructions for '_Z10getNormale6float3S_'.
GPGPU-Sim PTX: instruction assembly for function '_Z11getNormaleP6float3'...   done.
GPGPU-Sim PTX: finding reconvergence points for '_Z11getNormaleP6float3'...
GPGPU-Sim PTX: Finding dominators for '_Z11getNormaleP6float3'...
GPGPU-Sim PTX: Finding immediate dominators for '_Z11getNormaleP6float3'...
GPGPU-Sim PTX: Finding postdominators for '_Z11getNormaleP6float3'...
GPGPU-Sim PTX: Finding immediate postdominators for '_Z11getNormaleP6float3'...
GPGPU-Sim PTX: pre-decoding instructions for '_Z11getNormaleP6float3'...
GPGPU-Sim PTX: reconvergence points for _Z11getNormaleP6float3...
GPGPU-Sim PTX: ... end of reconvergence points for _Z11getNormaleP6float3
GPGPU-Sim PTX: ... done pre-decoding instructions for '_Z11getNormaleP6float3'.
GPGPU-Sim PTX: instruction assembly for function '_Z14rgbaFloatToInt6float4'...   done.
GPGPU-Sim PTX: finding reconvergence points for '_Z14rgbaFloatToInt6float4'...
GPGPU-Sim PTX: Finding dominators for '_Z14rgbaFloatToInt6float4'...
GPGPU-Sim PTX: Finding immediate dominators for '_Z14rgbaFloatToInt6float4'...
GPGPU-Sim PTX: Finding postdominators for '_Z14rgbaFloatToInt6float4'...
GPGPU-Sim PTX: Finding immediate postdominators for '_Z14rgbaFloatToInt6float4'...
GPGPU-Sim PTX: pre-decoding instructions for '_Z14rgbaFloatToInt6float4'...
GPGPU-Sim PTX: reconvergence points for _Z14rgbaFloatToInt6float4...
GPGPU-Sim PTX: ... end of reconvergence points for _Z14rgbaFloatToInt6float4
GPGPU-Sim PTX: ... done pre-decoding instructions for '_Z14rgbaFloatToInt6float4'.
GPGPU-Sim PTX: allocating global region for "cnode" from 0x100 to 0x1a0 (global memory space)
GPGPU-Sim PTX: instruction assembly for function '_Z12notShadowRayP4Node6float3S1_f'...   done.
GPGPU-Sim PTX: finding reconvergence points for '_Z12notShadowRayP4Node6float3S1_f'...
GPGPU-Sim PTX: Finding dominators for '_Z12notShadowRayP4Node6float3S1_f'...
GPGPU-Sim PTX: Finding immediate dominators for '_Z12notShadowRayP4Node6float3S1_f'...
GPGPU-Sim PTX: Finding postdominators for '_Z12notShadowRayP4Node6float3S1_f'...
GPGPU-Sim PTX: Finding immediate postdominators for '_Z12notShadowRayP4Node6float3S1_f'...
GPGPU-Sim PTX: pre-decoding instructions for '_Z12notShadowRayP4Node6float3S1_f'...
GPGPU-Sim PTX: reconvergence points for _Z12notShadowRayP4Node6float3S1_f...
GPGPU-Sim PTX:  1 (potential) branch divergence @  PC=0x638 (_1.ptx:364) @%p1 bra $Lt_7_8450;
GPGPU-Sim PTX:    immediate post dominator      @  PC=0x828 (_1.ptx:441) mov.f32 %f58, 0f00000000;    // 0
GPGPU-Sim PTX:  2 (potential) branch divergence @  PC=0x658 (_1.ptx:369) @!%p2 bra $Lt_7_8962;
GPGPU-Sim PTX:    immediate post dominator      @  PC=0x6b8 (_1.ptx:385) mov.f32 %f28, %f20;
GPGPU-Sim PTX:  3 (potential) branch divergence @  PC=0x668 (_1.ptx:371) bra.uni $Lt_7_8706;
GPGPU-Sim PTX:    immediate post dominator      @  PC=0x6b8 (_1.ptx:385) mov.f32 %f28, %f20;
GPGPU-Sim PTX:  4 (potential) branch divergence @  PC=0x6c0 (_1.ptx:386) bra.uni $Lt_7_8194;
GPGPU-Sim PTX:    immediate post dominator      @  PC=0x828 (_1.ptx:441) mov.f32 %f58, 0f00000000;    // 0
GPGPU-Sim PTX:  5 (potential) branch divergence @  PC=0x7b0 (_1.ptx:418) @%p5 bra $Lt_7_9474;
GPGPU-Sim PTX:    immediate post dominator      @  PC=0x820 (_1.ptx:438) mov.f32 %f28, %f51;
GPGPU-Sim PTX:  6 (potential) branch divergence @  PC=0x7c0 (_1.ptx:420) bra.uni $Lt_7_9730;
GPGPU-Sim PTX:    immediate post dominator      @  PC=0x820 (_1.ptx:438) mov.f32 %f28, %f51;
GPGPU-Sim PTX:  7 (potential) branch divergence @  PC=0x7e0 (_1.ptx:425) @!%p6 bra $Lt_7_9986;
GPGPU-Sim PTX:    immediate post dominator      @  PC=0x820 (_1.ptx:438) mov.f32 %f28, %f51;
GPGPU-Sim PTX:  8 (potential) branch divergence @  PC=0x7f0 (_1.ptx:427) bra.uni $Lt_7_9730;
GPGPU-Sim PTX:    immediate post dominator      @  PC=0x820 (_1.ptx:438) mov.f32 %f28, %f51;
GPGPU-Sim PTX:  9 (potential) branch divergence @  PC=0x838 (_1.ptx:443) @!%p7 bra $Lt_7_10242;
GPGPU-Sim PTX:    immediate post dominator      @  PC=0x8e8 (_1.ptx:468) add.s32 %r1, %r1, 1;
GPGPU-Sim PTX: 10 (potential) branch divergence @  PC=0x8d8 (_1.ptx:463) @!%p8 bra $Lt_7_10242;
GPGPU-Sim PTX:    immediate post dominator      @  PC=0x8e8 (_1.ptx:468) add.s32 %r1, %r1, 1;
GPGPU-Sim PTX: 11 (potential) branch divergence @  PC=0x908 (_1.ptx:472) @%p9 bra $Lt_7_10754;
GPGPU-Sim PTX:    immediate post dominator      @  PC=0x960 (_1.ptx:486) selp.s32 %r10, 1, 0, %p11;
GPGPU-Sim PTX: 12 (potential) branch divergence @  PC=0x930 (_1.ptx:477) @%p10 bra $L_7_7170;
GPGPU-Sim PTX:    immediate post dominator      @  PC=0x960 (_1.ptx:486) selp.s32 %r10, 1, 0, %p11;
GPGPU-Sim PTX: 13 (potential) branch divergence @  PC=0x938 (_1.ptx:478) bra.uni $L_7_7938;
GPGPU-Sim PTX:    immediate post dominator      @  PC=0x960 (_1.ptx:486) selp.s32 %r10, 1, 0, %p11;
GPGPU-Sim PTX: ... end of reconvergence points for _Z12notShadowRayP4Node6float3S1_f
GPGPU-Sim PTX: ... done pre-decoding instructions for '_Z12notShadowRayP4Node6float3S1_f'.
GPGPU-Sim PTX: instruction assembly for function '_Z15float2int_pow20f'...   done.
GPGPU-Sim PTX: finding reconvergence points for '_Z15float2int_pow20f'...
GPGPU-Sim PTX: Finding dominators for '_Z15float2int_pow20f'...
GPGPU-Sim PTX: Finding immediate dominators for '_Z15float2int_pow20f'...
GPGPU-Sim PTX: Finding postdominators for '_Z15float2int_pow20f'...
GPGPU-Sim PTX: Finding immediate postdominators for '_Z15float2int_pow20f'...
GPGPU-Sim PTX: pre-decoding instructions for '_Z15float2int_pow20f'...
GPGPU-Sim PTX: reconvergence points for _Z15float2int_pow20f...
GPGPU-Sim PTX: ... end of reconvergence points for _Z15float2int_pow20f
GPGPU-Sim PTX: ... done pre-decoding instructions for '_Z15float2int_pow20f'.
GPGPU-Sim PTX: instruction assembly for function '_Z15float2int_pow50f'...   done.
GPGPU-Sim PTX: finding reconvergence points for '_Z15float2int_pow50f'...
GPGPU-Sim PTX: Finding dominators for '_Z15float2int_pow50f'...
GPGPU-Sim PTX: Finding immediate dominators for '_Z15float2int_pow50f'...
GPGPU-Sim PTX: Finding postdominators for '_Z15float2int_pow50f'...
GPGPU-Sim PTX: Finding immediate postdominators for '_Z15float2int_pow50f'...
GPGPU-Sim PTX: pre-decoding instructions for '_Z15float2int_pow50f'...
GPGPU-Sim PTX: reconvergence points for _Z15float2int_pow50f...
GPGPU-Sim PTX: ... end of reconvergence points for _Z15float2int_pow50f
GPGPU-Sim PTX: ... done pre-decoding instructions for '_Z15float2int_pow50f'.
GPGPU-Sim PTX: allocating constant region for "MView" from 0x200 to 0x230 (global memory space) 1
GPGPU-Sim PTX: allocating stack frame region for .local "__cuda___cuda_local_var_35463_9_non_const_pile_32240" from 0x0 to 0x50
GPGPU-Sim PTX: instruction assembly for function '_Z6renderPjP4Nodejjff'...   done.
GPGPU-Sim PTX: finding reconvergence points for '_Z6renderPjP4Nodejjff'...
GPGPU-Sim PTX: Finding dominators for '_Z6renderPjP4Nodejjff'...
GPGPU-Sim PTX: Finding immediate dominators for '_Z6renderPjP4Nodejjff'...
GPGPU-Sim PTX: Finding postdominators for '_Z6renderPjP4Nodejjff'...
GPGPU-Sim PTX: Finding immediate postdominators for '_Z6renderPjP4Nodejjff'...
GPGPU-Sim PTX: pre-decoding instructions for '_Z6renderPjP4Nodejjff'...
GPGPU-Sim PTX: reconvergence points for _Z6renderPjP4Nodejjff...
GPGPU-Sim PTX:  1 (potential) branch divergence @  PC=0xdb0 (_1.ptx:663) @%p1 bra $Lt_10_44034;
GPGPU-Sim PTX:    immediate post dominator      @  PC=0x2370 (_1.ptx:1495) exit;
GPGPU-Sim PTX:  2 (potential) branch divergence @  PC=0x1028 (_1.ptx:751) @%p2 bra $Lt_10_45570;
GPGPU-Sim PTX:    immediate post dominator      @  PC=0x11b8 (_1.ptx:815) mov.f32 %f108, 0f00000000;   // 0
GPGPU-Sim PTX:  3 (potential) branch divergence @  PC=0x1048 (_1.ptx:756) @!%p3 bra $Lt_10_46082;
GPGPU-Sim PTX:    immediate post dominator      @  PC=0x1090 (_1.ptx:769) mov.f32 %f87, %f82;
GPGPU-Sim PTX:  4 (potential) branch divergence @  PC=0x1058 (_1.ptx:758) bra.uni $Lt_10_45826;
GPGPU-Sim PTX:    immediate post dominator      @  PC=0x1090 (_1.ptx:769) mov.f32 %f87, %f82;
GPGPU-Sim PTX:  5 (potential) branch divergence @  PC=0x1098 (_1.ptx:770) bra.uni $Lt_10_45314;
GPGPU-Sim PTX:    immediate post dominator      @  PC=0x11b8 (_1.ptx:815) mov.f32 %f108, 0f00000000;   // 0
GPGPU-Sim PTX:  6 (potential) branch divergence @  PC=0x1140 (_1.ptx:793) @%p6 bra $Lt_10_46594;
GPGPU-Sim PTX:    immediate post dominator      @  PC=0x11b0 (_1.ptx:813) mov.f32 %f87, %f101;
GPGPU-Sim PTX:  7 (potential) branch divergence @  PC=0x1150 (_1.ptx:795) bra.uni $Lt_10_46850;
GPGPU-Sim PTX:    immediate post dominator      @  PC=0x11b0 (_1.ptx:813) mov.f32 %f87, %f101;
GPGPU-Sim PTX:  8 (potential) branch divergence @  PC=0x1170 (_1.ptx:800) @!%p7 bra $Lt_10_47106;
GPGPU-Sim PTX:    immediate post dominator      @  PC=0x11b0 (_1.ptx:813) mov.f32 %f87, %f101;
GPGPU-Sim PTX:  9 (potential) branch divergence @  PC=0x1180 (_1.ptx:802) bra.uni $Lt_10_46850;
GPGPU-Sim PTX:    immediate post dominator      @  PC=0x11b0 (_1.ptx:813) mov.f32 %f87, %f101;
GPGPU-Sim PTX: 10 (potential) branch divergence @  PC=0x11f8 (_1.ptx:823) @%p8 bra $Lt_10_47362;
GPGPU-Sim PTX:    immediate post dominator      @  PC=0x1210 (_1.ptx:829) add.s32 %r25, %r25, 1;
GPGPU-Sim PTX: 11 (potential) branch divergence @  PC=0x1230 (_1.ptx:833) @%p9 bra $Lt_10_45058;
GPGPU-Sim PTX:    immediate post dominator      @  PC=0x1238 (_1.ptx:834) mov.f32 %f109, 0f00000000;   // 0
GPGPU-Sim PTX: 12 (potential) branch divergence @  PC=0x1280 (_1.ptx:843) @%p10 bra $Lt_10_48130;
GPGPU-Sim PTX:    immediate post dominator      @  PC=0x2140 (_1.ptx:1416) add.s32 %r23, %r23, 1;
GPGPU-Sim PTX: 13 (potential) branch divergence @  PC=0x1330 (_1.ptx:868) @%p11 bra $Lt_10_48898;
GPGPU-Sim PTX:    immediate post dominator      @  PC=0x13b8 (_1.ptx:888) sub.f32 %f136, %f21, %f119;
GPGPU-Sim PTX: 14 (potential) branch divergence @  PC=0x1350 (_1.ptx:873) bra.uni $Lt_10_48642;
GPGPU-Sim PTX:    immediate post dominator      @  PC=0x13b8 (_1.ptx:888) sub.f32 %f136, %f21, %f119;
GPGPU-Sim PTX: 15 (potential) branch divergence @  PC=0x1430 (_1.ptx:903) @!%p12 bra $Lt_10_49410;
GPGPU-Sim PTX:    immediate post dominator      @  PC=0x1470 (_1.ptx:915) mov.f32 %f153, 0f3d4ccccd;   // 0.05
GPGPU-Sim PTX: 16 (potential) branch divergence @  PC=0x1450 (_1.ptx:908) bra.uni $Lt_10_49154;
GPGPU-Sim PTX:    immediate post dominator      @  PC=0x1470 (_1.ptx:915) mov.f32 %f153, 0f3d4ccccd;   // 0.05
GPGPU-Sim PTX: 17 (potential) branch divergence @  PC=0x1578 (_1.ptx:949) @!%p13 bra $Lt_10_58114;
GPGPU-Sim PTX:    immediate post dominator      @  PC=0x2080 (_1.ptx:1388) add.f32 %f399, %f126, %f126;
GPGPU-Sim PTX: 18 (potential) branch divergence @  PC=0x15c0 (_1.ptx:961) @%p14 bra $Lt_10_49922;
GPGPU-Sim PTX:    immediate post dominator      @  PC=0x17b0 (_1.ptx:1039) mov.f32 %f221, 0f00000000;   // 0
GPGPU-Sim PTX: 19 (potential) branch divergence @  PC=0x15e0 (_1.ptx:966) @!%p15 bra $Lt_10_50434;
GPGPU-Sim PTX:    immediate post dominator      @  PC=0x1638 (_1.ptx:982) mov.f32 %f190, %f183;
GPGPU-Sim PTX: 20 (potential) branch divergence @  PC=0x15f0 (_1.ptx:968) bra.uni $Lt_10_50178;
GPGPU-Sim PTX:    immediate post dominator      @  PC=0x1638 (_1.ptx:982) mov.f32 %f190, %f183;
GPGPU-Sim PTX: 21 (potential) branch divergence @  PC=0x1640 (_1.ptx:983) bra.uni $Lt_10_49666;
GPGPU-Sim PTX:    immediate post dominator      @  PC=0x17b0 (_1.ptx:1039) mov.f32 %f221, 0f00000000;   // 0
GPGPU-Sim PTX: 22 (potential) branch divergence @  PC=0x1738 (_1.ptx:1016) @%p18 bra $Lt_10_50946;
GPGPU-Sim PTX:    immediate post dominator      @  PC=0x17a8 (_1.ptx:1036) mov.f32 %f190, %f214;
GPGPU-Sim PTX: 23 (potential) branch divergence @  PC=0x1748 (_1.ptx:1018) bra.uni $Lt_10_51202;
GPGPU-Sim PTX:    immediate post dominator      @  PC=0x17a8 (_1.ptx:1036) mov.f32 %f190, %f214;
GPGPU-Sim PTX: 24 (potential) branch divergence @  PC=0x1768 (_1.ptx:1023) @!%p19 bra $Lt_10_51458;
GPGPU-Sim PTX:    immediate post dominator      @  PC=0x17a8 (_1.ptx:1036) mov.f32 %f190, %f214;
GPGPU-Sim PTX: 25 (potential) branch divergence @  PC=0x1778 (_1.ptx:1025) bra.uni $Lt_10_51202;
GPGPU-Sim PTX:    immediate post dominator      @  PC=0x17a8 (_1.ptx:1036) mov.f32 %f190, %f214;
GPGPU-Sim PTX: 26 (potential) branch divergence @  PC=0x17c0 (_1.ptx:1041) @!%p20 bra $Lt_10_58370;
GPGPU-Sim PTX:    immediate post dominator      @  PC=0x1828 (_1.ptx:1057) add.s32 %r50, %r50, 1;
GPGPU-Sim PTX: 27 (potential) branch divergence @  PC=0x1818 (_1.ptx:1052) @!%p21 bra $Lt_10_58370;
GPGPU-Sim PTX:    immediate post dominator      @  PC=0x1828 (_1.ptx:1057) add.s32 %r50, %r50, 1;
GPGPU-Sim PTX: 28 (potential) branch divergence @  PC=0x1848 (_1.ptx:1061) @%p22 bra $Lt_10_58882;
GPGPU-Sim PTX:    immediate post dominator      @  PC=0x1880 (_1.ptx:1071) @!%p23 bra $Lt_10_58114;
GPGPU-Sim PTX: 29 (potential) branch divergence @  PC=0x1860 (_1.ptx:1064) @%p23 bra $L_10_42498;
GPGPU-Sim PTX:    immediate post dominator      @  PC=0x1880 (_1.ptx:1071) @!%p23 bra $Lt_10_58114;
GPGPU-Sim PTX: 30 (potential) branch divergence @  PC=0x1868 (_1.ptx:1065) bra.uni $L_10_43266;
GPGPU-Sim PTX:    immediate post dominator      @  PC=0x1880 (_1.ptx:1071) @!%p23 bra $Lt_10_58114;
GPGPU-Sim PTX: 31 (potential) branch divergence @  PC=0x1880 (_1.ptx:1071) @!%p23 bra $Lt_10_58114;
GPGPU-Sim PTX:    immediate post dominator      @  PC=0x2080 (_1.ptx:1388) add.f32 %f399, %f126, %f126;
GPGPU-Sim PTX: 32 (potential) branch divergence @  PC=0x19c8 (_1.ptx:1115) @!%p24 bra $Lt_10_51714;
GPGPU-Sim PTX:    immediate post dominator      @  PC=0x2040 (_1.ptx:1375) mov.f32 %f394, 0f3f4ccccd;   // 0.8
GPGPU-Sim PTX: 33 (potential) branch divergence @  PC=0x19d8 (_1.ptx:1118) bra.uni $LDWendi___isnanf_192_1;
GPGPU-Sim PTX:    immediate post dominator      @  PC=0x2040 (_1.ptx:1375) mov.f32 %f394, 0f3f4ccccd;   // 0.8
GPGPU-Sim PTX: 34 (potential) branch divergence @  PC=0x19f8 (_1.ptx:1124) @!%p25 bra $Lt_10_7682;
GPGPU-Sim PTX:    immediate post dominator      @  PC=0x2040 (_1.ptx:1375) mov.f32 %f394, 0f3f4ccccd;   // 0.8
GPGPU-Sim PTX: 35 (potential) branch divergence @  PC=0x1a00 (_1.ptx:1125) bra.uni $Lt_10_7938;
GPGPU-Sim PTX:    immediate post dominator      @  PC=0x1a20 (_1.ptx:1133) mov.f32 %f272, 0f7f800000;   // ((1.0F)/(0.0F))
GPGPU-Sim PTX: 36 (potential) branch divergence @  PC=0x1a18 (_1.ptx:1130) bra.uni $LDWendi___isnanf_192_1;
GPGPU-Sim PTX:    immediate post dominator      @  PC=0x2040 (_1.ptx:1375) mov.f32 %f394, 0f3f4ccccd;   // 0.8
GPGPU-Sim PTX: 37 (potential) branch divergence @  PC=0x1a30 (_1.ptx:1135) @!%p26 bra $Lt_10_52226;
GPGPU-Sim PTX:    immediate post dominator      @  PC=0x2040 (_1.ptx:1375) mov.f32 %f394, 0f3f4ccccd;   // 0.8
GPGPU-Sim PTX: 38 (potential) branch divergence @  PC=0x1a40 (_1.ptx:1138) bra.uni $LDWendi___isnanf_192_1;
GPGPU-Sim PTX:    immediate post dominator      @  PC=0x2040 (_1.ptx:1375) mov.f32 %f394, 0f3f4ccccd;   // 0.8
GPGPU-Sim PTX: 39 (potential) branch divergence @  PC=0x1a58 (_1.ptx:1142) @!%p27 bra $Lt_10_52738;
GPGPU-Sim PTX:    immediate post dominator      @  PC=0x2040 (_1.ptx:1375) mov.f32 %f394, 0f3f4ccccd;   // 0.8
GPGPU-Sim PTX: 40 (potential) branch divergence @  PC=0x1ab8 (_1.ptx:1155) bra.uni $LDWendi___isnanf_192_1;
GPGPU-Sim PTX:    immediate post dominator      @  PC=0x2040 (_1.ptx:1375) mov.f32 %f394, 0f3f4ccccd;   // 0.8
GPGPU-Sim PTX: 41 (potential) branch divergence @  PC=0x1ad0 (_1.ptx:1159) @!%p29 bra $Lt_10_53250;
GPGPU-Sim PTX:    immediate post dominator      @  PC=0x2040 (_1.ptx:1375) mov.f32 %f394, 0f3f4ccccd;   // 0.8
GPGPU-Sim PTX: 42 (potential) branch divergence @  PC=0x1b20 (_1.ptx:1170) @!%p30 bra $Lt_10_53762;
GPGPU-Sim PTX:    immediate post dominator      @  PC=0x1b40 (_1.ptx:1177) mov.f32 %f268, %f284;
GPGPU-Sim PTX: 43 (potential) branch divergence @  PC=0x1b48 (_1.ptx:1178) bra.uni $LDWendi___isnanf_192_1;
GPGPU-Sim PTX:    immediate post dominator      @  PC=0x2040 (_1.ptx:1375) mov.f32 %f394, 0f3f4ccccd;   // 0.8
GPGPU-Sim PTX: 44 (potential) branch divergence @  PC=0x1b60 (_1.ptx:1183) @!%p31 bra $Lt_10_59394;
GPGPU-Sim PTX:    immediate post dominator      @  PC=0x2040 (_1.ptx:1375) mov.f32 %f394, 0f3f4ccccd;   // 0.8
GPGPU-Sim PTX: 45 (potential) branch divergence @  PC=0x1b88 (_1.ptx:1188) @!%p32 bra $Lt_10_59394;
GPGPU-Sim PTX:    immediate post dominator      @  PC=0x2040 (_1.ptx:1375) mov.f32 %f394, 0f3f4ccccd;   // 0.8
GPGPU-Sim PTX: 46 (potential) branch divergence @  PC=0x1ba0 (_1.ptx:1192) bra.uni $LDWendi___isnanf_192_1;
GPGPU-Sim PTX:    immediate post dominator      @  PC=0x2040 (_1.ptx:1375) mov.f32 %f394, 0f3f4ccccd;   // 0.8
GPGPU-Sim PTX: 47 (potential) branch divergence @  PC=0x1bd8 (_1.ptx:1202) @%p33 bra $Lt_10_54530;
GPGPU-Sim PTX:    immediate post dominator      @  PC=0x1c20 (_1.ptx:1216) sub.s32 %r64, %r64, 127;
GPGPU-Sim PTX: 48 (potential) branch divergence @  PC=0x1c10 (_1.ptx:1211) bra.uni $Lt_10_54274;
GPGPU-Sim PTX:    immediate post dominator      @  PC=0x1c20 (_1.ptx:1216) sub.s32 %r64, %r64, 127;
GPGPU-Sim PTX: 49 (potential) branch divergence @  PC=0x1c58 (_1.ptx:1224) @!%p34 bra $Lt_10_54786;
GPGPU-Sim PTX:    immediate post dominator      @  PC=0x1c78 (_1.ptx:1232) mov.f32 %f302, 0fbf800000;   // -1
GPGPU-Sim PTX: 50 (potential) branch divergence @  PC=0x1eb0 (_1.ptx:1312) @%p35 bra $Lt_10_55298;
GPGPU-Sim PTX:    immediate post dominator      @  PC=0x1ed8 (_1.ptx:1321) mov.f32 %f367, %f365;
GPGPU-Sim PTX: 51 (potential) branch divergence @  PC=0x1f98 (_1.ptx:1346) @!%p38 bra $Lt_10_55810;
GPGPU-Sim PTX:    immediate post dominator      @  PC=0x1fa8 (_1.ptx:1351) mov.f32 %f284, %f386;
GPGPU-Sim PTX: 52 (potential) branch divergence @  PC=0x2018 (_1.ptx:1365) @%p39 bra $Lt_10_56322;
GPGPU-Sim PTX:    immediate post dominator      @  PC=0x2038 (_1.ptx:1372) mov.f32 %f268, %f284;
GPGPU-Sim PTX: 53 (potential) branch divergence @  PC=0x2158 (_1.ptx:1419) @%p40 bra $L_10_42242;
GPGPU-Sim PTX:    immediate post dominator      @  PC=0x2170 (_1.ptx:1424) sub.s32 %r86, %r24, 1;
GPGPU-Sim PTX: 54 (potential) branch divergence @  PC=0x2168 (_1.ptx:1421) @%p41 bra $L_10_41474;
GPGPU-Sim PTX:    immediate post dominator      @  PC=0x2170 (_1.ptx:1424) sub.s32 %r86, %r24, 1;
GPGPU-Sim PTX: 55 (potential) branch divergence @  PC=0x2190 (_1.ptx:1428) @%p42 bra $Lt_10_56834;
GPGPU-Sim PTX:    immediate post dominator      @  PC=0x2288 (_1.ptx:1464) ld.global.u32 %r92, [%rd4+0];
GPGPU-Sim PTX: 56 (potential) branch divergence @  PC=0x2280 (_1.ptx:1461) @%p43 bra $Lt_10_57346;
GPGPU-Sim PTX:    immediate post dominator      @  PC=0x2288 (_1.ptx:1464) ld.global.u32 %r92, [%rd4+0];
GPGPU-Sim PTX: ... end of reconvergence points for _Z6renderPjP4Nodejjff
GPGPU-Sim PTX: ... done pre-decoding instructions for '_Z6renderPjP4Nodejjff'.
GPGPU-Sim PTX: instruction assembly for function '_ZN4dim3C1Ejjj'...   done.
GPGPU-Sim PTX: finding reconvergence points for '_ZN4dim3C1Ejjj'...
GPGPU-Sim PTX: Finding dominators for '_ZN4dim3C1Ejjj'...
GPGPU-Sim PTX: Finding immediate dominators for '_ZN4dim3C1Ejjj'...
GPGPU-Sim PTX: Finding postdominators for '_ZN4dim3C1Ejjj'...
GPGPU-Sim PTX: Finding immediate postdominators for '_ZN4dim3C1Ejjj'...
GPGPU-Sim PTX: pre-decoding instructions for '_ZN4dim3C1Ejjj'...
GPGPU-Sim PTX: reconvergence points for _ZN4dim3C1Ejjj...
GPGPU-Sim PTX: ... end of reconvergence points for _ZN4dim3C1Ejjj
GPGPU-Sim PTX: ... done pre-decoding instructions for '_ZN4dim3C1Ejjj'.
GPGPU-Sim PTX: finished parsing EMBEDDED .ptx file _1.ptx
Adding _cuobjdump_1.ptx with cubin handle 1
GPGPU-Sim PTX: extracting embedded .ptx to temporary file "_ptx_YsEhu6"
Running: cat _ptx_YsEhu6 | sed 's/.version 1.5/.version 1.4/' | sed 's/, texmode_independent//' | sed 's/\(\.extern \.const\[1\] .b8 \w\+\)\[\]/\1\[1\]/' | sed 's/const\[.\]/const\[0\]/g' > _ptx2_suAiPC
GPGPU-Sim PTX: generating ptxinfo using "$CUDA_INSTALL_PATH/bin/ptxas --gpu-name=sm_20 -v _ptx2_suAiPC --output-file  /dev/null 2> _ptx_YsEhu6info"
GPGPU-Sim PTX: Kernel '_Z6renderPjP4Nodejjff' : regs=45, lmem=4, smem=0, cmem=180
GPGPU-Sim PTX: removing ptxinfo using "rm -f _ptx_YsEhu6 _ptx2_suAiPC _ptx_YsEhu6info"
GPGPU-Sim PTX: loading globals with explicit initializers... 
GPGPU-Sim PTX: finished loading globals (0 bytes total).
GPGPU-Sim PTX: loading constants with explicit initializers...  done.
GPGPU-Sim PTX: __cudaRegisterVar: hostVar = 0x62fda0; deviceAddress = MView; deviceName = MView
GPGPU-Sim PTX: __cudaRegisterVar: Registering const memory space of 48 bytes
GPGPU-Sim PTX registering constant MView (48 bytes) to name mapping
GPGPU-Sim PTX: __cudaRegisterVar: hostVar = 0x62fde0; deviceAddress = cnode; deviceName = cnode
GPGPU-Sim PTX: __cudaRegisterVar: Registering const memory space of 160 bytes
GPGPU-Sim PTX registering constant cnode (160 bytes) to name mapping
GPGPU-Sim PTX: cudaMemcpyToSymbol: symbol = 0x62fde0
GPGPU-Sim PTX: starting gpgpu_ptx_sim_memcpy_symbol with hostVar 0x0x62fde0
GPGPU-Sim PTX: gpgpu_ptx_sim_memcpy_symbol: Found PTX symbol w/ hostVar=0x62fde0
GPGPU-Sim PTX: gpgpu_ptx_sim_memcpy_symbol: copying const memory 160 bytes  to  symbol cnode+0 @0x100 ...
GPGPU-Sim PTX: cudaMemcpyToSymbol: symbol = 0x62fda0
GPGPU-Sim PTX: starting gpgpu_ptx_sim_memcpy_symbol with hostVar 0x0x62fda0
GPGPU-Sim PTX: gpgpu_ptx_sim_memcpy_symbol: Found PTX symbol w/ hostVar=0x62fda0
GPGPU-Sim PTX: gpgpu_ptx_sim_memcpy_symbol: copying const memory 48 bytes  to  symbol MView+0 @0x200 ...

GPGPU-Sim PTX: cudaLaunch for 0x0x40ce13 (mode=performance simulation) on stream 0
GPGPU-Sim PTX: pushing kernel '_Z6renderPjP4Nodejjff' to stream 0, gridDim= (16,32,1) blockDim = (16,8,1) 
kernel '_Z6renderPjP4Nodejjff' transfer to GPU hardware scheduler
GPGPU-Sim uArch: Shader 1 bind to kernel 1 '_Z6renderPjP4Nodejjff'
GPGPU-Sim uArch: CTA/core = 5, limited by: regs
GPGPU-Sim uArch: core:  1, cta: 0 initialized @(1,0)
GPGPU-Sim uArch: Shader 2 bind to kernel 1 '_Z6renderPjP4Nodejjff'
GPGPU-Sim uArch: core:  2, cta: 0 initialized @(1,0)
GPGPU-Sim uArch: Shader 3 bind to kernel 1 '_Z6renderPjP4Nodejjff'
GPGPU-Sim uArch: core:  3, cta: 0 initialized @(1,0)
GPGPU-Sim uArch: Shader 4 bind to kernel 1 '_Z6renderPjP4Nodejjff'
GPGPU-Sim uArch: core:  4, cta: 0 initialized @(1,0)
GPGPU-Sim uArch: Shader 5 bind to kernel 1 '_Z6renderPjP4Nodejjff'
GPGPU-Sim uArch: core:  5, cta: 0 initialized @(1,0)
GPGPU-Sim uArch: Shader 6 bind to kernel 1 '_Z6renderPjP4Nodejjff'
GPGPU-Sim uArch: core:  6, cta: 0 initialized @(1,0)
GPGPU-Sim uArch: Shader 7 bind to kernel 1 '_Z6renderPjP4Nodejjff'
GPGPU-Sim uArch: core:  7, cta: 0 initialized @(1,0)
GPGPU-Sim uArch: Shader 8 bind to kernel 1 '_Z6renderPjP4Nodejjff'
GPGPU-Sim uArch: core:  8, cta: 0 initialized @(1,0)
GPGPU-Sim uArch: Shader 9 bind to kernel 1 '_Z6renderPjP4Nodejjff'
GPGPU-Sim uArch: core:  9, cta: 0 initialized @(1,0)
GPGPU-Sim uArch: Shader 10 bind to kernel 1 '_Z6renderPjP4Nodejjff'
GPGPU-Sim uArch: core: 10, cta: 0 initialized @(1,0)
GPGPU-Sim uArch: Shader 11 bind to kernel 1 '_Z6renderPjP4Nodejjff'
GPGPU-Sim uArch: core: 11, cta: 0 initialized @(1,0)
GPGPU-Sim uArch: Shader 12 bind to kernel 1 '_Z6renderPjP4Nodejjff'
GPGPU-Sim uArch: core: 12, cta: 0 initialized @(1,0)
GPGPU-Sim uArch: Shader 13 bind to kernel 1 '_Z6renderPjP4Nodejjff'
GPGPU-Sim uArch: core: 13, cta: 0 initialized @(1,0)
GPGPU-Sim uArch: Shader 14 bind to kernel 1 '_Z6renderPjP4Nodejjff'
GPGPU-Sim uArch: core: 14, cta: 0 initialized @(1,0)
GPGPU-Sim uArch: Shader 0 bind to kernel 1 '_Z6renderPjP4Nodejjff'
GPGPU-Sim uArch: core:  0, cta: 0 initialized @(1,0)
GPGPU-Sim uArch: core:  1, cta: 1 initialized @(2,0)
GPGPU-Sim uArch: core:  2, cta: 1 initialized @(2,0)
GPGPU-Sim uArch: core:  3, cta: 1 initialized @(2,0)
GPGPU-Sim uArch: core:  4, cta: 1 initialized @(2,0)
GPGPU-Sim uArch: core:  5, cta: 1 initialized @(2,0)
GPGPU-Sim uArch: core:  6, cta: 1 initialized @(2,0)
GPGPU-Sim uArch: core:  7, cta: 1 initialized @(2,0)
GPGPU-Sim uArch: core:  8, cta: 1 initialized @(2,0)
GPGPU-Sim uArch: core:  9, cta: 1 initialized @(2,0)
GPGPU-Sim uArch: core: 10, cta: 1 initialized @(2,0)
GPGPU-Sim uArch: core: 11, cta: 1 initialized @(2,0)
GPGPU-Sim uArch: core: 12, cta: 1 initialized @(2,0)
GPGPU-Sim uArch: core: 13, cta: 1 initialized @(2,0)
GPGPU-Sim uArch: core: 14, cta: 1 initialized @(2,0)
GPGPU-Sim uArch: core:  0, cta: 1 initialized @(2,0)
GPGPU-Sim uArch: core:  1, cta: 2 initialized @(3,0)
GPGPU-Sim uArch: core:  2, cta: 2 initialized @(3,0)
GPGPU-Sim uArch: core:  3, cta: 2 initialized @(3,0)
GPGPU-Sim uArch: core:  4, cta: 2 initialized @(3,0)
GPGPU-Sim uArch: core:  5, cta: 2 initialized @(3,0)
GPGPU-Sim uArch: core:  6, cta: 2 initialized @(3,0)
GPGPU-Sim uArch: core:  7, cta: 2 initialized @(3,0)
GPGPU-Sim uArch: core:  8, cta: 2 initialized @(3,0)
GPGPU-Sim uArch: core:  9, cta: 2 initialized @(3,0)
GPGPU-Sim uArch: core: 10, cta: 2 initialized @(3,0)
GPGPU-Sim uArch: core: 11, cta: 2 initialized @(3,0)
GPGPU-Sim uArch: core: 12, cta: 2 initialized @(3,0)
GPGPU-Sim uArch: core: 13, cta: 2 initialized @(3,0)
GPGPU-Sim uArch: core: 14, cta: 2 initialized @(3,0)
GPGPU-Sim uArch: core:  0, cta: 2 initialized @(3,0)
GPGPU-Sim uArch: core:  1, cta: 3 initialized @(4,0)
GPGPU-Sim uArch: core:  2, cta: 3 initialized @(4,0)
GPGPU-Sim uArch: core:  3, cta: 3 initialized @(4,0)
GPGPU-Sim uArch: core:  4, cta: 3 initialized @(4,0)
GPGPU-Sim uArch: core:  5, cta: 3 initialized @(4,0)
GPGPU-Sim uArch: core:  6, cta: 3 initialized @(4,0)
GPGPU-Sim uArch: core:  7, cta: 3 initialized @(4,0)
GPGPU-Sim uArch: core:  8, cta: 3 initialized @(4,0)
GPGPU-Sim uArch: core:  9, cta: 3 initialized @(4,0)
GPGPU-Sim uArch: core: 10, cta: 3 initialized @(4,0)
GPGPU-Sim uArch: core: 11, cta: 3 initialized @(4,0)
GPGPU-Sim uArch: core: 12, cta: 3 initialized @(4,0)
GPGPU-Sim uArch: core: 13, cta: 3 initialized @(4,0)
GPGPU-Sim uArch: core: 14, cta: 3 initialized @(4,0)
GPGPU-Sim uArch: core:  0, cta: 3 initialized @(4,0)
GPGPU-Sim uArch: core:  1, cta: 4 initialized @(5,0)
GPGPU-Sim uArch: core:  2, cta: 4 initialized @(5,0)
GPGPU-Sim uArch: core:  3, cta: 4 initialized @(5,0)
GPGPU-Sim uArch: core:  4, cta: 4 initialized @(5,0)
GPGPU-Sim uArch: core:  5, cta: 4 initialized @(5,0)
GPGPU-Sim uArch: core:  6, cta: 4 initialized @(5,0)
GPGPU-Sim uArch: core:  7, cta: 4 initialized @(5,0)
GPGPU-Sim uArch: core:  8, cta: 4 initialized @(5,0)
GPGPU-Sim uArch: core:  9, cta: 4 initialized @(5,0)
GPGPU-Sim uArch: core: 10, cta: 4 initialized @(5,0)
GPGPU-Sim uArch: core: 11, cta: 4 initialized @(5,0)
GPGPU-Sim uArch: core: 12, cta: 4 initialized @(5,0)
GPGPU-Sim uArch: core: 13, cta: 4 initialized @(5,0)
GPGPU-Sim uArch: core: 14, cta: 4 initialized @(5,0)
GPGPU-Sim uArch: core:  0, cta: 4 initialized @(5,0)
GPGPU-Sim uArch: cycles simulated: 500  inst.: 35328 (ipc=70.7) sim_rate=35328 (inst/sec) elapsed = 0:0:00:01 / Wed Mar  2 01:12:11 2016
GPGPU-Sim uArch: cycles simulated: 1000  inst.: 48192 (ipc=48.2) sim_rate=24096 (inst/sec) elapsed = 0:0:00:02 / Wed Mar  2 01:12:12 2016
GPGPU-Sim uArch: cycles simulated: 4000  inst.: 78496 (ipc=19.6) sim_rate=26165 (inst/sec) elapsed = 0:0:00:03 / Wed Mar  2 01:12:13 2016
GPGPU-Sim PTX: 100000 instructions simulated : ctaid=(13,0,0) tid=(15,5,0)
GPGPU-Sim uArch: cycles simulated: 7500  inst.: 134432 (ipc=17.9) sim_rate=33608 (inst/sec) elapsed = 0:0:00:04 / Wed Mar  2 01:12:14 2016
GPGPU-Sim PTX: 200000 instructions simulated : ctaid=(8,1,0) tid=(15,3,0)
GPGPU-Sim uArch: cycles simulated: 10500  inst.: 214752 (ipc=20.5) sim_rate=42950 (inst/sec) elapsed = 0:0:00:05 / Wed Mar  2 01:12:15 2016
GPGPU-Sim uArch: cycles simulated: 13500  inst.: 285216 (ipc=21.1) sim_rate=47536 (inst/sec) elapsed = 0:0:00:06 / Wed Mar  2 01:12:16 2016
GPGPU-Sim PTX: 300000 instructions simulated : ctaid=(3,1,0) tid=(15,1,0)
GPGPU-Sim uArch: cycles simulated: 16000  inst.: 389984 (ipc=24.4) sim_rate=55712 (inst/sec) elapsed = 0:0:00:07 / Wed Mar  2 01:12:17 2016
GPGPU-Sim PTX: 400000 instructions simulated : ctaid=(4,0,0) tid=(15,3,0)
GPGPU-Sim PTX: 500000 instructions simulated : ctaid=(5,1,0) tid=(15,7,0)
GPGPU-Sim uArch: cycles simulated: 18500  inst.: 545984 (ipc=29.5) sim_rate=68248 (inst/sec) elapsed = 0:0:00:08 / Wed Mar  2 01:12:18 2016
GPGPU-Sim PTX: 600000 instructions simulated : ctaid=(8,2,0) tid=(15,5,0)
GPGPU-Sim PTX: 700000 instructions simulated : ctaid=(1,1,0) tid=(15,7,0)
GPGPU-Sim uArch: cycles simulated: 21500  inst.: 726144 (ipc=33.8) sim_rate=80682 (inst/sec) elapsed = 0:0:00:09 / Wed Mar  2 01:12:19 2016
GPGPU-Sim PTX: 800000 instructions simulated : ctaid=(5,2,0) tid=(15,3,0)
GPGPU-Sim PTX: 900000 instructions simulated : ctaid=(2,0,0) tid=(15,7,0)
GPGPU-Sim uArch: cycles simulated: 24000  inst.: 925376 (ipc=38.6) sim_rate=92537 (inst/sec) elapsed = 0:0:00:10 / Wed Mar  2 01:12:20 2016
GPGPU-Sim PTX: 1000000 instructions simulated : ctaid=(1,3,0) tid=(15,3,0)
GPGPU-Sim PTX: 1100000 instructions simulated : ctaid=(2,1,0) tid=(15,7,0)
GPGPU-Sim PTX: 1200000 instructions simulated : ctaid=(6,1,0) tid=(15,7,0)
GPGPU-Sim uArch: cycles simulated: 26500  inst.: 1210880 (ipc=45.7) sim_rate=110080 (inst/sec) elapsed = 0:0:00:11 / Wed Mar  2 01:12:21 2016
GPGPU-Sim PTX: 1300000 instructions simulated : ctaid=(15,2,0) tid=(15,5,0)
GPGPU-Sim PTX: 1400000 instructions simulated : ctaid=(5,0,0) tid=(15,1,0)
GPGPU-Sim PTX: 1500000 instructions simulated : ctaid=(7,0,0) tid=(15,5,0)
GPGPU-Sim PTX: 1600000 instructions simulated : ctaid=(4,0,0) tid=(15,3,0)
GPGPU-Sim PTX: 1700000 instructions simulated : ctaid=(7,2,0) tid=(15,3,0)
GPGPU-Sim PTX: 1800000 instructions simulated : ctaid=(8,0,0) tid=(15,7,0)
GPGPU-Sim uArch: cycles simulated: 28500  inst.: 1774272 (ipc=62.3) sim_rate=147856 (inst/sec) elapsed = 0:0:00:12 / Wed Mar  2 01:12:22 2016
GPGPU-Sim PTX: 1900000 instructions simulated : ctaid=(11,0,0) tid=(15,7,0)
GPGPU-Sim PTX: 2000000 instructions simulated : ctaid=(1,1,0) tid=(15,1,0)
GPGPU-Sim PTX: 2100000 instructions simulated : ctaid=(11,0,0) tid=(15,5,0)
GPGPU-Sim PTX: 2200000 instructions simulated : ctaid=(8,1,0) tid=(15,7,0)
GPGPU-Sim uArch: cycles simulated: 30000  inst.: 2156416 (ipc=71.9) sim_rate=165878 (inst/sec) elapsed = 0:0:00:13 / Wed Mar  2 01:12:23 2016
GPGPU-Sim PTX: 2300000 instructions simulated : ctaid=(15,0,0) tid=(15,7,0)
GPGPU-Sim PTX: 2400000 instructions simulated : ctaid=(11,3,0) tid=(15,1,0)
GPGPU-Sim PTX: 2500000 instructions simulated : ctaid=(10,2,0) tid=(15,7,0)
GPGPU-Sim PTX: 2600000 instructions simulated : ctaid=(3,3,0) tid=(15,5,0)
GPGPU-Sim PTX: 2700000 instructions simulated : ctaid=(4,4,0) tid=(15,3,0)
GPGPU-Sim PTX: 2800000 instructions simulated : ctaid=(1,2,0) tid=(15,7,0)
GPGPU-Sim PTX: 2900000 instructions simulated : ctaid=(5,4,0) tid=(15,7,0)
GPGPU-Sim PTX: 3000000 instructions simulated : ctaid=(4,4,0) tid=(15,3,0)
GPGPU-Sim PTX: 3100000 instructions simulated : ctaid=(10,4,0) tid=(15,3,0)
GPGPU-Sim uArch: cycles simulated: 31500  inst.: 3055296 (ipc=97.0) sim_rate=218235 (inst/sec) elapsed = 0:0:00:14 / Wed Mar  2 01:12:24 2016
GPGPU-Sim PTX: 3200000 instructions simulated : ctaid=(9,0,0) tid=(15,3,0)
GPGPU-Sim PTX: 3300000 instructions simulated : ctaid=(8,3,0) tid=(15,5,0)
GPGPU-Sim PTX: 3400000 instructions simulated : ctaid=(12,0,0) tid=(15,5,0)
GPGPU-Sim PTX: 3500000 instructions simulated : ctaid=(1,4,0) tid=(15,7,0)
GPGPU-Sim uArch: cycles simulated: 32500  inst.: 3505824 (ipc=107.9) sim_rate=233721 (inst/sec) elapsed = 0:0:00:15 / Wed Mar  2 01:12:25 2016
GPGPU-Sim PTX: 3600000 instructions simulated : ctaid=(3,0,0) tid=(15,7,0)
GPGPU-Sim PTX: 3700000 instructions simulated : ctaid=(7,4,0) tid=(15,5,0)
GPGPU-Sim PTX: 3800000 instructions simulated : ctaid=(3,4,0) tid=(15,1,0)
GPGPU-Sim PTX: 3900000 instructions simulated : ctaid=(15,0,0) tid=(15,5,0)
GPGPU-Sim PTX: 4000000 instructions simulated : ctaid=(13,3,0) tid=(15,7,0)
GPGPU-Sim uArch: cycles simulated: 34500  inst.: 3936000 (ipc=114.1) sim_rate=246000 (inst/sec) elapsed = 0:0:00:16 / Wed Mar  2 01:12:26 2016
GPGPU-Sim PTX: 4100000 instructions simulated : ctaid=(7,3,0) tid=(15,1,0)
GPGPU-Sim PTX: 4200000 instructions simulated : ctaid=(12,1,0) tid=(15,1,0)
GPGPU-Sim PTX: 4300000 instructions simulated : ctaid=(12,2,0) tid=(15,3,0)
GPGPU-Sim PTX: 4400000 instructions simulated : ctaid=(14,1,0) tid=(15,1,0)
GPGPU-Sim PTX: 4500000 instructions simulated : ctaid=(5,3,0) tid=(15,7,0)
GPGPU-Sim PTX: 4600000 instructions simulated : ctaid=(0,0,0) tid=(12,0,0)
GPGPU-Sim PTX: 4700000 instructions simulated : ctaid=(2,1,0) tid=(11,0,0)
GPGPU-Sim uArch: cycles simulated: 36500  inst.: 4589506 (ipc=125.7) sim_rate=269970 (inst/sec) elapsed = 0:0:00:17 / Wed Mar  2 01:12:27 2016
GPGPU-Sim PTX: 4800000 instructions simulated : ctaid=(9,0,0) tid=(15,0,0)
GPGPU-Sim PTX: 4900000 instructions simulated : ctaid=(6,2,0) tid=(15,2,0)
GPGPU-Sim PTX: 5000000 instructions simulated : ctaid=(12,2,0) tid=(15,0,0)
GPGPU-Sim PTX: 5100000 instructions simulated : ctaid=(8,2,0) tid=(15,4,0)
GPGPU-Sim PTX: 5200000 instructions simulated : ctaid=(12,2,0) tid=(15,4,0)
GPGPU-Sim PTX: 5300000 instructions simulated : ctaid=(15,2,0) tid=(15,0,0)
GPGPU-Sim PTX: 5400000 instructions simulated : ctaid=(6,3,0) tid=(15,4,0)
GPGPU-Sim PTX: 5500000 instructions simulated : ctaid=(13,2,0) tid=(5,0,0)
GPGPU-Sim uArch: cycles simulated: 37500  inst.: 5382539 (ipc=143.5) sim_rate=299029 (inst/sec) elapsed = 0:0:00:18 / Wed Mar  2 01:12:28 2016
GPGPU-Sim PTX: 5600000 instructions simulated : ctaid=(10,2,0) tid=(0,6,0)
GPGPU-Sim PTX: 5700000 instructions simulated : ctaid=(7,0,0) tid=(2,2,0)
GPGPU-Sim PTX: 5800000 instructions simulated : ctaid=(5,4,0) tid=(15,2,0)
GPGPU-Sim PTX: 5900000 instructions simulated : ctaid=(7,4,0) tid=(11,5,0)
GPGPU-Sim PTX: 6000000 instructions simulated : ctaid=(13,3,0) tid=(5,3,0)
GPGPU-Sim PTX: 6100000 instructions simulated : ctaid=(8,1,0) tid=(11,7,0)
GPGPU-Sim uArch: cycles simulated: 38500  inst.: 5918436 (ipc=153.7) sim_rate=311496 (inst/sec) elapsed = 0:0:00:19 / Wed Mar  2 01:12:29 2016
GPGPU-Sim PTX: 6200000 instructions simulated : ctaid=(9,4,0) tid=(11,7,0)
GPGPU-Sim PTX: 6300000 instructions simulated : ctaid=(9,3,0) tid=(11,3,0)
GPGPU-Sim PTX: 6400000 instructions simulated : ctaid=(11,0,0) tid=(11,3,0)
GPGPU-Sim PTX: 6500000 instructions simulated : ctaid=(2,4,0) tid=(13,7,0)
GPGPU-Sim uArch: cycles simulated: 40500  inst.: 6349860 (ipc=156.8) sim_rate=317493 (inst/sec) elapsed = 0:0:00:20 / Wed Mar  2 01:12:30 2016
GPGPU-Sim PTX: 6600000 instructions simulated : ctaid=(12,0,0) tid=(11,3,0)
GPGPU-Sim PTX: 6700000 instructions simulated : ctaid=(9,0,0) tid=(11,7,0)
GPGPU-Sim PTX: 6800000 instructions simulated : ctaid=(12,2,0) tid=(11,3,0)
GPGPU-Sim PTX: 6900000 instructions simulated : ctaid=(14,0,0) tid=(11,5,0)
GPGPU-Sim PTX: 7000000 instructions simulated : ctaid=(14,1,0) tid=(11,3,0)
GPGPU-Sim uArch: cycles simulated: 42000  inst.: 6904836 (ipc=164.4) sim_rate=328801 (inst/sec) elapsed = 0:0:00:21 / Wed Mar  2 01:12:31 2016
GPGPU-Sim PTX: 7100000 instructions simulated : ctaid=(5,0,0) tid=(11,7,0)
GPGPU-Sim PTX: 7200000 instructions simulated : ctaid=(10,2,0) tid=(11,1,0)
GPGPU-Sim PTX: 7300000 instructions simulated : ctaid=(4,4,0) tid=(11,1,0)
GPGPU-Sim PTX: 7400000 instructions simulated : ctaid=(13,3,0) tid=(11,1,0)
GPGPU-Sim PTX: 7500000 instructions simulated : ctaid=(11,2,0) tid=(11,3,0)
GPGPU-Sim uArch: cycles simulated: 43500  inst.: 7377060 (ipc=169.6) sim_rate=335320 (inst/sec) elapsed = 0:0:00:22 / Wed Mar  2 01:12:32 2016
GPGPU-Sim PTX: 7600000 instructions simulated : ctaid=(10,4,0) tid=(11,5,0)
GPGPU-Sim PTX: 7700000 instructions simulated : ctaid=(0,0,0) tid=(11,1,0)
GPGPU-Sim PTX: 7800000 instructions simulated : ctaid=(13,3,0) tid=(11,5,0)
GPGPU-Sim PTX: 7900000 instructions simulated : ctaid=(5,0,0) tid=(11,3,0)
GPGPU-Sim PTX: 8000000 instructions simulated : ctaid=(7,0,0) tid=(11,3,0)
GPGPU-Sim PTX: 8100000 instructions simulated : ctaid=(13,1,0) tid=(11,1,0)
GPGPU-Sim uArch: cycles simulated: 45000  inst.: 7911684 (ipc=175.8) sim_rate=343986 (inst/sec) elapsed = 0:0:00:23 / Wed Mar  2 01:12:33 2016
GPGPU-Sim PTX: 8200000 instructions simulated : ctaid=(2,0,0) tid=(11,5,0)
GPGPU-Sim PTX: 8300000 instructions simulated : ctaid=(11,3,0) tid=(11,7,0)
GPGPU-Sim PTX: 8400000 instructions simulated : ctaid=(13,2,0) tid=(11,5,0)
GPGPU-Sim PTX: 8500000 instructions simulated : ctaid=(8,3,0) tid=(11,5,0)
GPGPU-Sim PTX: 8600000 instructions simulated : ctaid=(1,3,0) tid=(11,5,0)
GPGPU-Sim PTX: 8700000 instructions simulated : ctaid=(11,3,0) tid=(13,5,0)
GPGPU-Sim PTX: 8800000 instructions simulated : ctaid=(7,2,0) tid=(3,0,0)
GPGPU-Sim PTX: 8900000 instructions simulated : ctaid=(8,3,0) tid=(11,3,0)
GPGPU-Sim PTX: 9000000 instructions simulated : ctaid=(15,2,0) tid=(5,4,0)
GPGPU-Sim uArch: cycles simulated: 46500  inst.: 8812002 (ipc=189.5) sim_rate=367166 (inst/sec) elapsed = 0:0:00:24 / Wed Mar  2 01:12:34 2016
GPGPU-Sim PTX: 9100000 instructions simulated : ctaid=(4,3,0) tid=(15,5,0)
GPGPU-Sim PTX: 9200000 instructions simulated : ctaid=(1,3,0) tid=(3,4,0)
GPGPU-Sim PTX: 9300000 instructions simulated : ctaid=(15,0,0) tid=(3,5,0)
GPGPU-Sim PTX: 9400000 instructions simulated : ctaid=(6,4,0) tid=(3,1,0)
GPGPU-Sim PTX: 9500000 instructions simulated : ctaid=(0,0,0) tid=(13,3,0)
GPGPU-Sim PTX: 9600000 instructions simulated : ctaid=(10,0,0) tid=(12,7,0)
GPGPU-Sim PTX: 9700000 instructions simulated : ctaid=(0,3,0) tid=(11,6,0)
GPGPU-Sim PTX: 9800000 instructions simulated : ctaid=(9,4,0) tid=(8,2,0)
GPGPU-Sim uArch: cycles simulated: 47500  inst.: 9590917 (ipc=201.9) sim_rate=383636 (inst/sec) elapsed = 0:0:00:25 / Wed Mar  2 01:12:35 2016
GPGPU-Sim PTX: 9900000 instructions simulated : ctaid=(7,4,0) tid=(12,3,0)
GPGPU-Sim PTX: 10000000 instructions simulated : ctaid=(3,4,0) tid=(4,6,0)
GPGPU-Sim PTX: 10100000 instructions simulated : ctaid=(0,0,0) tid=(0,0,0)
GPGPU-Sim PTX: 10200000 instructions simulated : ctaid=(0,3,0) tid=(3,4,0)
GPGPU-Sim uArch: cycles simulated: 49000  inst.: 10006542 (ipc=204.2) sim_rate=384867 (inst/sec) elapsed = 0:0:00:26 / Wed Mar  2 01:12:36 2016
GPGPU-Sim PTX: 10300000 instructions simulated : ctaid=(4,0,0) tid=(3,2,0)
GPGPU-Sim PTX: 10400000 instructions simulated : ctaid=(14,3,0) tid=(1,5,0)
GPGPU-Sim uArch: Shader 8 finished CTA #3 (49386,0), 4 CTAs running
GPGPU-Sim uArch: core:  8, cta: 3 initialized @(49387,0)
GPGPU-Sim uArch: Shader 6 finished CTA #2 (49407,0), 4 CTAs running
GPGPU-Sim uArch: core:  6, cta: 2 initialized @(49408,0)
GPGPU-Sim uArch: Shader 8 finished CTA #2 (49417,0), 4 CTAs running
GPGPU-Sim uArch: core:  8, cta: 2 initialized @(49418,0)
GPGPU-Sim uArch: Shader 8 finished CTA #4 (49450,0), 4 CTAs running
GPGPU-Sim uArch: core:  8, cta: 4 initialized @(49451,0)
GPGPU-Sim uArch: Shader 6 finished CTA #3 (49466,0), 4 CTAs running
GPGPU-Sim uArch: core:  6, cta: 3 initialized @(49467,0)
GPGPU-Sim uArch: Shader 0 finished CTA #1 (49488,0), 4 CTAs running
GPGPU-Sim uArch: core:  0, cta: 1 initialized @(49489,0)
GPGPU-Sim uArch: Shader 6 finished CTA #4 (49492,0), 4 CTAs running
GPGPU-Sim uArch: core:  6, cta: 4 initialized @(49493,0)
GPGPU-Sim uArch: Shader 9 finished CTA #4 (49500,0), 4 CTAs running
GPGPU-Sim uArch: core:  9, cta: 4 initialized @(49501,0)
GPGPU-Sim uArch: Shader 9 finished CTA #3 (49509,0), 4 CTAs running
GPGPU-Sim uArch: core:  9, cta: 3 initialized @(49510,0)
GPGPU-Sim uArch: Shader 14 finished CTA #0 (49518,0), 4 CTAs running
GPGPU-Sim uArch: core: 14, cta: 0 initialized @(49519,0)
GPGPU-Sim uArch: Shader 0 finished CTA #0 (49540,0), 4 CTAs running
GPGPU-Sim uArch: core:  0, cta: 0 initialized @(49541,0)
GPGPU-Sim uArch: Shader 3 finished CTA #0 (49554,0), 4 CTAs running
GPGPU-Sim uArch: core:  3, cta: 0 initialized @(49555,0)
GPGPU-Sim uArch: Shader 2 finished CTA #1 (49572,0), 4 CTAs running
GPGPU-Sim uArch: core:  2, cta: 1 initialized @(49573,0)
GPGPU-Sim uArch: Shader 0 finished CTA #3 (49592,0), 4 CTAs running
GPGPU-Sim uArch: core:  0, cta: 3 initialized @(49593,0)
GPGPU-Sim uArch: Shader 1 finished CTA #1 (49594,0), 4 CTAs running
GPGPU-Sim uArch: core:  1, cta: 1 initialized @(49595,0)
GPGPU-Sim uArch: Shader 0 finished CTA #2 (49602,0), 4 CTAs running
GPGPU-Sim uArch: Shader 1 finished CTA #0 (49602,0), 4 CTAs running
GPGPU-Sim uArch: Shader 2 finished CTA #3 (49602,0), 4 CTAs running
GPGPU-Sim uArch: core:  2, cta: 3 initialized @(49603,0)
GPGPU-Sim uArch: core:  0, cta: 2 initialized @(49603,0)
GPGPU-Sim uArch: core:  1, cta: 0 initialized @(49603,0)
GPGPU-Sim uArch: Shader 0 finished CTA #4 (49610,0), 4 CTAs running
GPGPU-Sim uArch: core:  0, cta: 4 initialized @(49611,0)
GPGPU-Sim uArch: Shader 2 finished CTA #0 (49616,0), 4 CTAs running
GPGPU-Sim uArch: core:  2, cta: 0 initialized @(49617,0)
GPGPU-Sim uArch: Shader 4 finished CTA #2 (49621,0), 4 CTAs running
GPGPU-Sim uArch: core:  4, cta: 2 initialized @(49622,0)
GPGPU-Sim uArch: Shader 1 finished CTA #2 (49622,0), 4 CTAs running
GPGPU-Sim uArch: core:  1, cta: 2 initialized @(49623,0)
GPGPU-Sim uArch: Shader 2 finished CTA #2 (49626,0), 4 CTAs running
GPGPU-Sim uArch: core:  2, cta: 2 initialized @(49627,0)
GPGPU-Sim uArch: Shader 4 finished CTA #1 (49629,0), 4 CTAs running
GPGPU-Sim uArch: core:  4, cta: 1 initialized @(49630,0)
GPGPU-Sim uArch: Shader 5 finished CTA #2 (49640,0), 4 CTAs running
GPGPU-Sim uArch: core:  5, cta: 2 initialized @(49641,0)
GPGPU-Sim uArch: Shader 4 finished CTA #3 (49655,0), 4 CTAs running
GPGPU-Sim uArch: core:  4, cta: 3 initialized @(49656,0)
GPGPU-Sim uArch: Shader 2 finished CTA #4 (49660,0), 4 CTAs running
GPGPU-Sim uArch: Shader 3 finished CTA #1 (49660,0), 4 CTAs running
GPGPU-Sim uArch: core:  2, cta: 4 initialized @(49661,0)
GPGPU-Sim uArch: core:  3, cta: 1 initialized @(49661,0)
GPGPU-Sim uArch: Shader 3 finished CTA #2 (49674,0), 4 CTAs running
GPGPU-Sim uArch: core:  3, cta: 2 initialized @(49675,0)
GPGPU-Sim PTX: 10500000 instructions simulated : ctaid=(6,3,0) tid=(0,0,0)
GPGPU-Sim uArch: Shader 1 finished CTA #4 (49686,0), 4 CTAs running
GPGPU-Sim uArch: core:  1, cta: 4 initialized @(49687,0)
GPGPU-Sim uArch: Shader 5 finished CTA #3 (49687,0), 4 CTAs running
GPGPU-Sim uArch: core:  5, cta: 3 initialized @(49688,0)
GPGPU-Sim uArch: Shader 3 finished CTA #4 (49690,0), 4 CTAs running
GPGPU-Sim uArch: core:  3, cta: 4 initialized @(49691,0)
GPGPU-Sim uArch: Shader 1 finished CTA #3 (49717,0), 4 CTAs running
GPGPU-Sim uArch: core:  1, cta: 3 initialized @(49718,0)
GPGPU-Sim uArch: Shader 3 finished CTA #3 (49725,0), 4 CTAs running
GPGPU-Sim uArch: core:  3, cta: 3 initialized @(49726,0)
GPGPU-Sim uArch: Shader 10 finished CTA #4 (49726,0), 4 CTAs running
GPGPU-Sim uArch: core: 10, cta: 4 initialized @(49727,0)
GPGPU-Sim uArch: Shader 4 finished CTA #4 (49739,0), 4 CTAs running
GPGPU-Sim uArch: core:  4, cta: 4 initialized @(49740,0)
GPGPU-Sim uArch: Shader 7 finished CTA #3 (49849,0), 4 CTAs running
GPGPU-Sim uArch: core:  7, cta: 3 initialized @(49850,0)
GPGPU-Sim uArch: Shader 7 finished CTA #4 (49873,0), 4 CTAs running
GPGPU-Sim uArch: core:  7, cta: 4 initialized @(49874,0)
GPGPU-Sim uArch: Shader 5 finished CTA #4 (49937,0), 4 CTAs running
GPGPU-Sim uArch: core:  5, cta: 4 initialized @(49938,0)
GPGPU-Sim uArch: cycles simulated: 50000  inst.: 10322414 (ipc=206.4) sim_rate=382311 (inst/sec) elapsed = 0:0:00:27 / Wed Mar  2 01:12:37 2016
GPGPU-Sim PTX: 10600000 instructions simulated : ctaid=(6,5,0) tid=(7,0,0)
GPGPU-Sim PTX: 10700000 instructions simulated : ctaid=(3,5,0) tid=(7,5,0)
GPGPU-Sim PTX: 10800000 instructions simulated : ctaid=(0,7,0) tid=(7,3,0)
GPGPU-Sim PTX: 10900000 instructions simulated : ctaid=(9,4,0) tid=(5,6,0)
GPGPU-Sim PTX: 11000000 instructions simulated : ctaid=(0,7,0) tid=(5,3,0)
GPGPU-Sim PTX: 11100000 instructions simulated : ctaid=(9,4,0) tid=(7,3,0)
GPGPU-Sim uArch: cycles simulated: 51500  inst.: 10861018 (ipc=210.9) sim_rate=387893 (inst/sec) elapsed = 0:0:00:28 / Wed Mar  2 01:12:38 2016
GPGPU-Sim PTX: 11200000 instructions simulated : ctaid=(0,5,0) tid=(10,5,0)
GPGPU-Sim PTX: 11300000 instructions simulated : ctaid=(5,6,0) tid=(11,4,0)
GPGPU-Sim PTX: 11400000 instructions simulated : ctaid=(0,5,0) tid=(1,6,0)
GPGPU-Sim PTX: 11500000 instructions simulated : ctaid=(11,4,0) tid=(11,4,0)
GPGPU-Sim PTX: 11600000 instructions simulated : ctaid=(3,1,0) tid=(4,2,0)
GPGPU-Sim uArch: cycles simulated: 52500  inst.: 11322703 (ipc=215.7) sim_rate=390438 (inst/sec) elapsed = 0:0:00:29 / Wed Mar  2 01:12:39 2016
GPGPU-Sim PTX: 11700000 instructions simulated : ctaid=(10,5,0) tid=(1,3,0)
GPGPU-Sim PTX: 11800000 instructions simulated : ctaid=(4,0,0) tid=(12,6,0)
GPGPU-Sim PTX: 11900000 instructions simulated : ctaid=(9,1,0) tid=(5,2,0)
GPGPU-Sim PTX: 12000000 instructions simulated : ctaid=(7,3,0) tid=(14,4,0)
GPGPU-Sim PTX: 12100000 instructions simulated : ctaid=(11,4,0) tid=(6,0,0)
GPGPU-Sim PTX: 12200000 instructions simulated : ctaid=(8,1,0) tid=(3,6,0)
GPGPU-Sim uArch: cycles simulated: 53500  inst.: 11889725 (ipc=222.2) sim_rate=396324 (inst/sec) elapsed = 0:0:00:30 / Wed Mar  2 01:12:40 2016
GPGPU-Sim PTX: 12300000 instructions simulated : ctaid=(15,5,0) tid=(8,6,0)
GPGPU-Sim PTX: 12400000 instructions simulated : ctaid=(15,5,0) tid=(2,5,0)
GPGPU-Sim uArch: Shader 14 finished CTA #2 (53942,0), 4 CTAs running
GPGPU-Sim uArch: core: 14, cta: 2 initialized @(53943,0)
GPGPU-Sim PTX: 12500000 instructions simulated : ctaid=(11,0,0) tid=(14,3,0)
GPGPU-Sim PTX: 12600000 instructions simulated : ctaid=(5,5,0) tid=(5,5,0)
GPGPU-Sim PTX: 12700000 instructions simulated : ctaid=(14,6,0) tid=(2,5,0)
GPGPU-Sim PTX: 12800000 instructions simulated : ctaid=(4,0,0) tid=(9,5,0)
GPGPU-Sim PTX: 12900000 instructions simulated : ctaid=(6,5,0) tid=(6,7,0)
GPGPU-Sim uArch: Shader 7 finished CTA #2 (54674,0), 4 CTAs running
GPGPU-Sim uArch: core:  7, cta: 2 initialized @(54675,0)
GPGPU-Sim PTX: 13000000 instructions simulated : ctaid=(6,6,0) tid=(7,6,0)
GPGPU-Sim PTX: 13100000 instructions simulated : ctaid=(10,5,0) tid=(1,1,0)
GPGPU-Sim uArch: cycles simulated: 55000  inst.: 12802861 (ipc=232.8) sim_rate=412995 (inst/sec) elapsed = 0:0:00:31 / Wed Mar  2 01:12:41 2016
GPGPU-Sim PTX: 13200000 instructions simulated : ctaid=(9,6,0) tid=(11,5,0)
GPGPU-Sim PTX: 13300000 instructions simulated : ctaid=(11,5,0) tid=(14,1,0)
GPGPU-Sim PTX: 13400000 instructions simulated : ctaid=(9,3,0) tid=(3,3,0)
GPGPU-Sim PTX: 13500000 instructions simulated : ctaid=(2,5,0) tid=(11,1,0)
GPGPU-Sim PTX: 13600000 instructions simulated : ctaid=(11,0,0) tid=(0,6,0)
GPGPU-Sim PTX: 13700000 instructions simulated : ctaid=(14,4,0) tid=(14,0,0)
GPGPU-Sim uArch: cycles simulated: 56000  inst.: 13350750 (ipc=238.4) sim_rate=417210 (inst/sec) elapsed = 0:0:00:32 / Wed Mar  2 01:12:42 2016
GPGPU-Sim PTX: 13800000 instructions simulated : ctaid=(12,6,0) tid=(1,3,0)
GPGPU-Sim PTX: 13900000 instructions simulated : ctaid=(1,5,0) tid=(8,6,0)
GPGPU-Sim PTX: 14000000 instructions simulated : ctaid=(7,2,0) tid=(11,2,0)
GPGPU-Sim PTX: 14100000 instructions simulated : ctaid=(7,6,0) tid=(1,0,0)
GPGPU-Sim PTX: 14200000 instructions simulated : ctaid=(4,5,0) tid=(15,5,0)
GPGPU-Sim uArch: cycles simulated: 57000  inst.: 13891045 (ipc=243.7) sim_rate=420940 (inst/sec) elapsed = 0:0:00:33 / Wed Mar  2 01:12:43 2016
GPGPU-Sim PTX: 14300000 instructions simulated : ctaid=(7,0,0) tid=(4,6,0)
GPGPU-Sim PTX: 14400000 instructions simulated : ctaid=(7,6,0) tid=(10,6,0)
GPGPU-Sim PTX: 14500000 instructions simulated : ctaid=(3,7,0) tid=(6,7,0)
GPGPU-Sim PTX: 14600000 instructions simulated : ctaid=(7,4,0) tid=(3,4,0)
GPGPU-Sim PTX: 14700000 instructions simulated : ctaid=(0,5,0) tid=(14,5,0)
GPGPU-Sim PTX: 14800000 instructions simulated : ctaid=(3,7,0) tid=(9,7,0)
GPGPU-Sim uArch: cycles simulated: 58000  inst.: 14492018 (ipc=249.9) sim_rate=426235 (inst/sec) elapsed = 0:0:00:34 / Wed Mar  2 01:12:44 2016
GPGPU-Sim PTX: 14900000 instructions simulated : ctaid=(4,1,0) tid=(0,1,0)
GPGPU-Sim PTX: 15000000 instructions simulated : ctaid=(8,6,0) tid=(12,3,0)
GPGPU-Sim PTX: 15100000 instructions simulated : ctaid=(14,6,0) tid=(0,2,0)
GPGPU-Sim PTX: 15200000 instructions simulated : ctaid=(11,4,0) tid=(1,5,0)
GPGPU-Sim PTX: 15300000 instructions simulated : ctaid=(11,0,0) tid=(3,2,0)
GPGPU-Sim PTX: 15400000 instructions simulated : ctaid=(14,6,0) tid=(7,7,0)
GPGPU-Sim uArch: cycles simulated: 59000  inst.: 15028725 (ipc=254.7) sim_rate=429392 (inst/sec) elapsed = 0:0:00:35 / Wed Mar  2 01:12:45 2016
GPGPU-Sim PTX: 15500000 instructions simulated : ctaid=(6,6,0) tid=(13,3,0)
GPGPU-Sim uArch: Shader 14 finished CTA #3 (59160,0), 4 CTAs running
GPGPU-Sim uArch: core: 14, cta: 3 initialized @(59161,0)
GPGPU-Sim PTX: 15600000 instructions simulated : ctaid=(9,0,0) tid=(5,5,0)
GPGPU-Sim PTX: 15700000 instructions simulated : ctaid=(0,7,0) tid=(7,7,0)
GPGPU-Sim PTX: 15800000 instructions simulated : ctaid=(7,2,0) tid=(6,0,0)
GPGPU-Sim PTX: 15900000 instructions simulated : ctaid=(10,6,0) tid=(13,4,0)
GPGPU-Sim PTX: 16000000 instructions simulated : ctaid=(9,0,0) tid=(11,4,0)
GPGPU-Sim PTX: 16100000 instructions simulated : ctaid=(13,5,0) tid=(2,6,0)
GPGPU-Sim uArch: cycles simulated: 60500  inst.: 15680144 (ipc=259.2) sim_rate=435559 (inst/sec) elapsed = 0:0:00:36 / Wed Mar  2 01:12:46 2016
GPGPU-Sim PTX: 16200000 instructions simulated : ctaid=(11,1,0) tid=(6,4,0)
GPGPU-Sim uArch: Shader 13 finished CTA #2 (60702,0), 4 CTAs running
GPGPU-Sim uArch: core: 13, cta: 2 initialized @(60703,0)
GPGPU-Sim PTX: 16300000 instructions simulated : ctaid=(8,2,0) tid=(7,7,0)
GPGPU-Sim PTX: 16400000 instructions simulated : ctaid=(7,1,0) tid=(14,4,0)
GPGPU-Sim PTX: 16500000 instructions simulated : ctaid=(11,0,0) tid=(11,3,0)
GPGPU-Sim uArch: cycles simulated: 61500  inst.: 16152015 (ipc=262.6) sim_rate=436540 (inst/sec) elapsed = 0:0:00:37 / Wed Mar  2 01:12:47 2016
GPGPU-Sim PTX: 16600000 instructions simulated : ctaid=(13,5,0) tid=(5,3,0)
GPGPU-Sim PTX: 16700000 instructions simulated : ctaid=(5,7,0) tid=(8,5,0)
GPGPU-Sim PTX: 16800000 instructions simulated : ctaid=(0,6,0) tid=(4,6,0)
GPGPU-Sim PTX: 16900000 instructions simulated : ctaid=(8,5,0) tid=(4,2,0)
GPGPU-Sim PTX: 17000000 instructions simulated : ctaid=(11,0,0) tid=(12,3,0)
GPGPU-Sim PTX: 17100000 instructions simulated : ctaid=(6,2,0) tid=(15,7,0)
GPGPU-Sim PTX: 17200000 instructions simulated : ctaid=(11,5,0) tid=(9,1,0)
GPGPU-Sim uArch: Shader 5 finished CTA #1 (62850,0), 4 CTAs running
GPGPU-Sim uArch: core:  5, cta: 1 initialized @(62851,0)
GPGPU-Sim PTX: 17300000 instructions simulated : ctaid=(11,5,0) tid=(3,0,0)
GPGPU-Sim uArch: cycles simulated: 63000  inst.: 16871471 (ipc=267.8) sim_rate=443986 (inst/sec) elapsed = 0:0:00:38 / Wed Mar  2 01:12:48 2016
GPGPU-Sim PTX: 17400000 instructions simulated : ctaid=(5,6,0) tid=(2,1,0)
GPGPU-Sim PTX: 17500000 instructions simulated : ctaid=(15,6,0) tid=(14,3,0)
GPGPU-Sim PTX: 17600000 instructions simulated : ctaid=(2,6,0) tid=(1,0,0)
GPGPU-Sim PTX: 17700000 instructions simulated : ctaid=(0,7,0) tid=(5,1,0)
GPGPU-Sim uArch: cycles simulated: 64000  inst.: 17309440 (ipc=270.5) sim_rate=443831 (inst/sec) elapsed = 0:0:00:39 / Wed Mar  2 01:12:49 2016
GPGPU-Sim PTX: 17800000 instructions simulated : ctaid=(0,7,0) tid=(2,1,0)
GPGPU-Sim uArch: Shader 14 finished CTA #1 (64271,0), 4 CTAs running
GPGPU-Sim uArch: core: 14, cta: 1 initialized @(64272,0)
GPGPU-Sim PTX: 17900000 instructions simulated : ctaid=(8,2,0) tid=(2,6,0)
GPGPU-Sim uArch: Shader 14 finished CTA #0 (64519,0), 4 CTAs running
GPGPU-Sim uArch: core: 14, cta: 0 initialized @(64520,0)
GPGPU-Sim uArch: Shader 9 finished CTA #4 (64533,0), 4 CTAs running
GPGPU-Sim uArch: core:  9, cta: 4 initialized @(64534,0)
GPGPU-Sim PTX: 18000000 instructions simulated : ctaid=(6,5,0) tid=(15,3,0)
GPGPU-Sim uArch: Shader 11 finished CTA #4 (64634,0), 4 CTAs running
GPGPU-Sim uArch: core: 11, cta: 4 initialized @(64635,0)
GPGPU-Sim uArch: Shader 9 finished CTA #3 (64722,0), 4 CTAs running
GPGPU-Sim uArch: core:  9, cta: 3 initialized @(64723,0)
GPGPU-Sim uArch: Shader 12 finished CTA #3 (64754,0), 4 CTAs running
GPGPU-Sim uArch: core: 12, cta: 3 initialized @(64755,0)
GPGPU-Sim PTX: 18100000 instructions simulated : ctaid=(13,4,0) tid=(13,1,0)
GPGPU-Sim PTX: 18200000 instructions simulated : ctaid=(6,3,0) tid=(7,1,0)
GPGPU-Sim PTX: 18300000 instructions simulated : ctaid=(5,0,0) tid=(13,6,0)
GPGPU-Sim PTX: 18400000 instructions simulated : ctaid=(10,0,0) tid=(2,0,0)
GPGPU-Sim uArch: Shader 4 finished CTA #2 (65345,0), 4 CTAs running
GPGPU-Sim uArch: core:  4, cta: 2 initialized @(65346,0)
GPGPU-Sim uArch: cycles simulated: 65500  inst.: 17988562 (ipc=274.6) sim_rate=449714 (inst/sec) elapsed = 0:0:00:40 / Wed Mar  2 01:12:50 2016
GPGPU-Sim uArch: Shader 7 finished CTA #4 (65529,0), 4 CTAs running
GPGPU-Sim uArch: core:  7, cta: 4 initialized @(65530,0)
GPGPU-Sim PTX: 18500000 instructions simulated : ctaid=(8,6,0) tid=(12,1,0)
GPGPU-Sim uArch: Shader 4 finished CTA #1 (65577,0), 4 CTAs running
GPGPU-Sim uArch: core:  4, cta: 1 initialized @(65578,0)
GPGPU-Sim uArch: Shader 7 finished CTA #3 (65583,0), 4 CTAs running
GPGPU-Sim uArch: core:  7, cta: 3 initialized @(65584,0)
GPGPU-Sim uArch: Shader 4 finished CTA #0 (65615,0), 4 CTAs running
GPGPU-Sim uArch: core:  4, cta: 0 initialized @(65616,0)
GPGPU-Sim uArch: Shader 10 finished CTA #4 (65618,0), 4 CTAs running
GPGPU-Sim uArch: core: 10, cta: 4 initialized @(65619,0)
GPGPU-Sim uArch: Shader 4 finished CTA #3 (65634,0), 4 CTAs running
GPGPU-Sim uArch: core:  4, cta: 3 initialized @(65635,0)
GPGPU-Sim PTX: 18600000 instructions simulated : ctaid=(7,6,0) tid=(3,0,0)
GPGPU-Sim PTX: 18700000 instructions simulated : ctaid=(2,7,0) tid=(3,2,0)
GPGPU-Sim uArch: Shader 13 finished CTA #0 (65934,0), 4 CTAs running
GPGPU-Sim uArch: core: 13, cta: 0 initialized @(65935,0)
GPGPU-Sim uArch: Shader 13 finished CTA #1 (65947,0), 4 CTAs running
GPGPU-Sim uArch: core: 13, cta: 1 initialized @(65948,0)
GPGPU-Sim uArch: Shader 10 finished CTA #3 (65951,0), 4 CTAs running
GPGPU-Sim uArch: core: 10, cta: 3 initialized @(65952,0)
GPGPU-Sim uArch: Shader 13 finished CTA #3 (66112,0), 4 CTAs running
GPGPU-Sim uArch: core: 13, cta: 3 initialized @(66113,0)
GPGPU-Sim PTX: 18800000 instructions simulated : ctaid=(11,4,0) tid=(14,4,0)
GPGPU-Sim PTX: 18900000 instructions simulated : ctaid=(9,5,0) tid=(6,5,0)
[...]
maxmrqlatency = 3213 
maxdqlatency = 0 
maxmflatency = 5848 
averagemflatency = 444 
max_icnt2mem_latency = 3411 
max_icnt2sh_latency = 165324 
mrq_lat_table:10386 	160 	207 	401 	2470 	3386 	4028 	4536 	4553 	1938 	244 	19 	0 	0 	0 	0 	0 	0 	0 	0 	0 	0 	0 	0 	0 	0 	0 	0 	0 	0 	0 	0 	
dq_lat_table:0 	0 	0 	0 	0 	0 	0 	0 	0 	0 	0 	0 	0 	0 	0 	0 	0 	0 	0 	0 	0 	0 	0 	0 	0 	0 	0 	0 	0 	0 	0 	0 	
mf_lat_table:0 	0 	0 	0 	0 	0 	0 	46611 	7966 	2665 	2858 	3556 	196 	0 	0 	0 	0 	0 	0 	0 	0 	0 	0 	0 	0 	0 	0 	0 	0 	0 	0 	0 	
icnt2mem_lat_table:0 	0 	0 	20306 	12900 	13390 	26610 	2242 	1687 	2846 	1700 	136 	0 	0 	0 	0 	0 	0 	0 	0 	0 	0 	0 	0 	
icnt2sh_lat_table:0 	0 	0 	5483 	3981 	1608 	225 	0 	0 	71 	148 	317 	809 	1795 	3640 	9158 	22614 	14003 	0 	0 	0 	0 	0 	0 	
mf_lat_pw_table:0 	0 	0 	0 	0 	0 	0 	206 	34 	9 	20 	41 	0 	0 	0 	0 	0 	0 	0 	0 	0 	0 	0 	0 	0 	0 	0 	0 	0 	0 	0 	0 	
maximum concurrent accesses to same row:
dram[0]:        46        56        36        34        26        20        46        23        26        23        16        18        15        27        28        43 
dram[1]:        52        54        34        32        20        22        35        42        26        23        15        19        23        27        26        37 
dram[2]:        62        62        60        56        28        30        26        44        29        24        25        22        35        23        33        25 
dram[3]:        60        62        60        58        26        30        43        18        27        23        39        21        17        16        14        22 
dram[4]:        62        64        60        54        30        34        42        22        26        23        26        24        17        26        57        45 
dram[5]:        62        62        58        56        30        34        26        38        22        22        22        49        18        28        24        27 
maximum service time to same row:
dram[0]:     17324     11881     28738     18098     18301     21052     15000     17726     19760     20637     20395     31407     23113     22701     22708     28497 
dram[1]:     16449     16416     22526     19151     16350     20257     17596     18202     18815     23528     37232     49346     26182     37112     18800     24235 
dram[2]:     26794     21781     32047     32757     17475     21057     18035     18306     19416     19704     26176     20745     31230     21581     20048     41527 
dram[3]:     18772     21890     23874     28841     18378     16364     17181     17560     18408     19967     25409     19855     30575     30309     23007     24930 
dram[4]:     13644     26002     22503     29851     14651     26633     17453     17434     18918     18329     19871     26248     19562     48446     29832     19592 
dram[5]:     17853     20940     26275     18891     17932     15883     17368     17504     18262     18243     36058     19831     20516     28416     19695     19668 
average row accesses per activate:
dram[0]:  5.758065  4.414286  5.245283  5.452830  3.791209  3.683544  4.788733  3.915789  3.778846  4.407407  3.779070  3.804124  4.282353  4.306667  4.593220  5.901961 
dram[1]:  4.615385  5.015385  5.444445  4.573771  3.195122  4.293334  3.845361  3.731959  4.077670  4.345238  3.252252  3.597938  3.693694  4.736111  4.661539  5.723404 
dram[2]:  6.200000  9.314285  6.140000  7.861111  3.747253  3.793814  3.360360  4.088608  4.876543  3.563107  4.000000  4.507042  5.042253  4.266667  5.116667  5.528302 
dram[3]:  6.478261  5.384615  8.724138  5.857143  4.183099  3.463636  4.438356  3.495413  4.435294  3.641026  4.507042  3.520000  4.434210  3.824742  4.750000  5.592593 
dram[4]:  5.317461  5.886793  7.325000  6.244898  3.434343  3.819277  4.222222  3.153846  4.000000  3.630000  3.670330  3.162162  4.209302  4.567567  5.934783  4.420290 
dram[5]:  6.370370  5.964912  7.684210  5.893617  3.188034  4.202703  3.316239  4.904762  3.610620  3.862745  3.504762  4.133333  3.858586  4.307693  4.919355  5.053571 
average row locality = 32328/7451 = 4.338747
number of total memory accesses made:
dram[0]:         0         0         0         0         0         0         0         0         0         0         0         0         0         0         0         0 
dram[1]:         0         0         0         0         0         0         0         0         0         0         0         0         0         0         0         0 
dram[2]:         0         0         0         0         0         0         0         0         0         0         0         0         0         0         0         0 
dram[3]:         0         0         0         0         0         0         0         0         0         0         0         0         0         0         0         0 
dram[4]:         0         0         0         0         0         0         0         0         0         0         0         0         0         0         0         0 
dram[5]:         0         0         0         0         0         0         0         0         0         0         0         0         0         0         0         0 
total accesses: 0
min_bank_accesses = 0!
min_chip_accesses = 0!
number of total read accesses:
dram[0]:       158       132       120       124       140       124       135       150       161       139       129       151       154       136       118       130 
dram[1]:       160       142       126       119       160       134       149       142       174       147       147       135       171       141       129       118 
dram[2]:       137       144       131       122       142       149       149       130       155       150       143       129       149       156       132       126 
dram[3]:       133       154       113       124       123       160       133       156       149       169       127       147       141       157       117       132 
dram[4]:       153       135       127       133       141       132       136       154       153       147       133       142       152       144       119       130 
dram[5]:       153       147       125       120       154       128       155       128       164       159       149       121       161       164       134       122 
total reads: 13489
bank skew: 174/113 = 1.54
chip skew: 2294/2201 = 1.04
number of total write accesses:
dram[0]:       199       177       158       165       205       167       205       222       232       218       196       218       210       187       153       171 
dram[1]:       200       184       168       160       233       188       224       220       246       218       214       214       239       200       174       151 
dram[2]:       173       182       176       161       199       219       224       193       240       217       209       191       209       228       175       167 
dram[3]:       165       196       140       163       174       221       191       225       228       257       193       205       196       214       149       170 
dram[4]:       182       177       166       173       199       185       206       215       219       216       201       209       210       194       154       175 
dram[5]:       191       193       167       157       219       183       233       181       244       235       219       189       221       228       171       161 
total reads: 18839
bank skew: 257/140 = 1.84
chip skew: 3233/3081 = 1.05
average mf latency per bank:
dram[0]:        816       698      1014       892       929      1037      1113       908       805       835       904       858       823       954       973       926
dram[1]:        751       658       821       850       658       796       823       842       629       729       693       752       638       746       865       990
dram[2]:        930       814      1038      1110      1086       981      1064      1169       966       887       956       989       923       817       988       898
dram[3]:        750       714      1053       993       906       761       963       810       734       650       812       724       764       716       871       785
dram[4]:        793       782      1115      1053      1084      1191      1275      1053       939       940      1013       972       958      1019      1147      1058
dram[5]:        713       687       976       941       780       948       824      1019       721       738       788       893       726       728       843       917
maximum mf latency per bank:
dram[0]:       3912      3015      4867      3395      4200      3883      4245      3667      4081      3480      3841      3444      4087      3597      3858      3524
dram[1]:       2561      2839      3833      3438      3091      3336      3356      3554      2942      3130      2891      2824      3113      2768      2832      3186
dram[2]:       4351      3793      5042      5679      4613      4909      5422      5328      4611      4773      4789      4790      4806      4342      4456      3702
dram[3]:       4233      4981      4584      5476      4514      4890      5201      4941      4277      3927      3939      4773      2932      3611      2800      3098
dram[4]:       4500      4655      5412      5458      4847      5107      5244      4182      4997      5629      5433      5019      4952      4520      4616      5459
dram[5]:       4966      4343      5295      5848      5271      4923      5030      4733      4746      4992      4634      4415      4582      4148      3249      3438

Number of Memory Banks Accessed per Memory Operation per Warp (from 0):
0	0	0	0	0	0	0	0	0	0	0	0	0	0	0	0	0	0	0	0	0	0	0	0	0	0	0	0	0	0	0	0	0	0	0	0	0	0	0	0	0	0	0	0	0	0	0	0	0	0	0	0	0	0	0	0	0	0	0	0	0	0	0	0	0	0	0	0	0	0	0	0	0	0	0	0	0	0	0	0	0	0	0	0	0	0	0	0	0	0	0	0	0	0	0	0	
Average # of Memory Banks Accessed per Memory Operation per Warp=-nan

position of mrq chosen
0	0	0	0	0	0	0	0	0	0	0	0	0	0	0	0	

average position of mrq chosen = -nan
Memory Partition 0: 
Cache L2_bank_000:
MSHR contents

Cache L2_bank_001:
MSHR contents

In Dram Latency Queue (total = 0): 
DRAM[0]: 16 bks, busW=4 BL=2 CL=12, tRRD=2 tCCD=6, tRCD=12 tRAS=28 tRP=12 tRC=40
n_cmd=218228 n_nop=175568 n_act=1212 n_pre=1196 n_req=5284 n_rd=17608 n_write=22644 bw_util=0
n_activity=110158 dram_eff=0
bk0: 1264a 184987i bk1: 1056a 191705i bk2: 960a 187769i bk3: 992a 188928i bk4: 1120a 178909i bk5: 992a 182400i bk6: 1080a 175816i bk7: 1200a 174240i bk8: 1288a 178995i bk9: 1112a 183012i bk10: 1032a 184523i bk11: 1208a 178508i bk12: 1232a 179174i bk13: 1088a 179994i bk14: 944a 184997i bk15: 1040a 183386i 
dram_util_bins: 0 0 0 0 0 0 0 0 0 0
dram_eff_bins: 0 0 0 0 0 0 0 0 0 0
mrqq: max=16 avg=4.70278
Memory Partition 1: 
Cache L2_bank_002:
MSHR contents

Cache L2_bank_003:
MSHR contents

In Dram Latency Queue (total = 0): 
DRAM[1]: 16 bks, busW=4 BL=2 CL=12, tRRD=2 tCCD=6, tRCD=12 tRAS=28 tRP=12 tRC=40
n_cmd=218228 n_nop=173316 n_act=1340 n_pre=1324 n_req=5527 n_rd=18352 n_write=23896 bw_util=0
n_activity=115202 dram_eff=0
bk0: 1280a 184166i bk1: 1136a 185572i bk2: 1008a 183507i bk3: 952a 185083i bk4: 1280a 173866i bk5: 1072a 176537i bk6: 1192a 172220i bk7: 1136a 171525i bk8: 1392a 176531i bk9: 1176a 177691i bk10: 1176a 180167i bk11: 1080a 177984i bk12: 1368a 175360i bk13: 1128a 178473i bk14: 1032a 180081i bk15: 944a 179471i 
dram_util_bins: 0 0 0 0 0 0 0 0 0 0
dram_eff_bins: 0 0 0 0 0 0 0 0 0 0
mrqq: max=16 avg=4.77042
Memory Partition 2: 
Cache L2_bank_004:
MSHR contents

Cache L2_bank_005:
MSHR contents

In Dram Latency Queue (total = 0): 
DRAM[2]: 16 bks, busW=4 BL=2 CL=12, tRRD=2 tCCD=6, tRCD=12 tRAS=28 tRP=12 tRC=40
n_cmd=218228 n_nop=174746 n_act=1166 n_pre=1150 n_req=5407 n_rd=17952 n_write=23214 bw_util=0
n_activity=112895 dram_eff=0
bk0: 1096a 190673i bk1: 1152a 189581i bk2: 1048a 189585i bk3: 976a 189060i bk4: 1136a 179677i bk5: 1192a 175603i bk6: 1192a 174702i bk7: 1040a 178183i bk8: 1240a 180959i bk9: 1200a 177470i bk10: 1144a 181294i bk11: 1032a 182458i bk12: 1192a 178928i bk13: 1248a 174332i bk14: 1056a 182878i bk15: 1008a 183717i 
dram_util_bins: 0 0 0 0 0 0 0 0 0 0
dram_eff_bins: 0 0 0 0 0 0 0 0 0 0
mrqq: max=16 avg=5.04401
Memory Partition 3: 
Cache L2_bank_006:
MSHR contents

Cache L2_bank_007:
MSHR contents

In Dram Latency Queue (total = 0): 
DRAM[3]: 16 bks, busW=4 BL=2 CL=12, tRRD=2 tCCD=6, tRCD=12 tRAS=28 tRP=12 tRC=40
n_cmd=218228 n_nop=175204 n_act=1208 n_pre=1192 n_req=5322 n_rd=17880 n_write=22744 bw_util=0
n_activity=113109 dram_eff=0
bk0: 1064a 190936i bk1: 1232a 186867i bk2: 904a 192817i bk3: 992a 188437i bk4: 984a 182163i bk5: 1280a 173799i bk6: 1064a 179762i bk7: 1248a 175267i bk8: 1192a 182059i bk9: 1352a 177262i bk10: 1016a 183358i bk11: 1176a 181045i bk12: 1128a 181601i bk13: 1256a 178454i bk14: 936a 185345i bk15: 1056a 185141i 
dram_util_bins: 0 0 0 0 0 0 0 0 0 0
dram_eff_bins: 0 0 0 0 0 0 0 0 0 0
mrqq: max=16 avg=4.55478
Memory Partition 4: 
Cache L2_bank_008:
MSHR contents

Cache L2_bank_009:
MSHR contents

In Dram Latency Queue (total = 0): 
DRAM[4]: 16 bks, busW=4 BL=2 CL=12, tRRD=2 tCCD=6, tRCD=12 tRAS=28 tRP=12 tRC=40
n_cmd=218228 n_nop=175302 n_act=1255 n_pre=1239 n_req=5312 n_rd=17848 n_write=22584 bw_util=0
n_activity=111746 dram_eff=0
bk0: 1224a 188522i bk1: 1080a 190107i bk2: 1016a 188374i bk3: 1064a 186093i bk4: 1128a 178389i bk5: 1056a 180410i bk6: 1088a 174757i bk7: 1232a 173133i bk8: 1224a 179312i bk9: 1176a 179800i bk10: 1064a 183693i bk11: 1136a 179985i bk12: 1216a 177609i bk13: 1152a 182153i bk14: 952a 185954i bk15: 1040a 182923i 
dram_util_bins: 0 0 0 0 0 0 0 0 0 0
dram_eff_bins: 0 0 0 0 0 0 0 0 0 0
mrqq: max=16 avg=4.64563
Memory Partition 5: 
Cache L2_bank_010:
MSHR contents

Cache L2_bank_011:
MSHR contents

In Dram Latency Queue (total = 0): 
DRAM[5]: 16 bks, busW=4 BL=2 CL=12, tRRD=2 tCCD=6, tRCD=12 tRAS=28 tRP=12 tRC=40
n_cmd=218228 n_nop=173910 n_act=1270 n_pre=1254 n_req=5476 n_rd=18272 n_write=23522 bw_util=0
n_activity=115108 dram_eff=0
bk0: 1224a 186788i bk1: 1176a 186645i bk2: 1000a 189185i bk3: 960a 188224i bk4: 1232a 173894i bk5: 1024a 179746i bk6: 1240a 173467i bk7: 1024a 178789i bk8: 1312a 176894i bk9: 1272a 177277i bk10: 1192a 177326i bk11: 968a 180574i bk12: 1288a 176309i bk13: 1312a 174491i bk14: 1072a 182828i bk15: 976a 181880i 
dram_util_bins: 0 0 0 0 0 0 0 0 0 0
dram_eff_bins: 0 0 0 0 0 0 0 0 0 0
mrqq: max=16 avg=4.80195

========= L2 cache stats =========
L2_cache_bank[0]: Access = 6751, Miss = 1115, Miss_rate = 0.165, Pending_hits = 115, Reservation_fails = 1790
L2_cache_bank[1]: Access = 6814, Miss = 1086, Miss_rate = 0.159, Pending_hits = 116, Reservation_fails = 746
L2_cache_bank[2]: Access = 6752, Miss = 1216, Miss_rate = 0.180, Pending_hits = 100, Reservation_fails = 1039
L2_cache_bank[3]: Access = 6699, Miss = 1078, Miss_rate = 0.161, Pending_hits = 120, Reservation_fails = 1000
L2_cache_bank[4]: Access = 6670, Miss = 1138, Miss_rate = 0.171, Pending_hits = 117, Reservation_fails = 1774
L2_cache_bank[5]: Access = 6872, Miss = 1106, Miss_rate = 0.161, Pending_hits = 119, Reservation_fails = 438
L2_cache_bank[6]: Access = 6963, Miss = 1036, Miss_rate = 0.149, Pending_hits = 115, Reservation_fails = 364
L2_cache_bank[7]: Access = 7104, Miss = 1199, Miss_rate = 0.169, Pending_hits = 84, Reservation_fails = 866
L2_cache_bank[8]: Access = 6916, Miss = 1114, Miss_rate = 0.161, Pending_hits = 100, Reservation_fails = 235
L2_cache_bank[9]: Access = 6650, Miss = 1117, Miss_rate = 0.168, Pending_hits = 113, Reservation_fails = 861
L2_cache_bank[10]: Access = 6915, Miss = 1195, Miss_rate = 0.173, Pending_hits = 91, Reservation_fails = 737
L2_cache_bank[11]: Access = 6711, Miss = 1089, Miss_rate = 0.162, Pending_hits = 107, Reservation_fails = 415
L2_total_cache_accesses = 81817
L2_total_cache_misses = 13489
L2_total_cache_miss_rate = 0.1649
L2_total_cache_pending_hits = 1297
L2_total_cache_reservation_fails = 10265
L2_total_cache_breakdown:
	L2_cache_stats_breakdown[GLOBAL_ACC_R][HIT] = 3669
	L2_cache_stats_breakdown[GLOBAL_ACC_R][HIT_RESERVED] = 16
	L2_cache_stats_breakdown[GLOBAL_ACC_R][MISS] = 165
	L2_cache_stats_breakdown[GLOBAL_ACC_R][RESERVATION_FAIL] = 466
	L2_cache_stats_breakdown[LOCAL_ACC_R][HIT] = 6754
	L2_cache_stats_breakdown[LOCAL_ACC_R][HIT_RESERVED] = 215
	L2_cache_stats_breakdown[LOCAL_ACC_R][MISS] = 448
	L2_cache_stats_breakdown[CONST_ACC_R][HIT] = 22
	L2_cache_stats_breakdown[CONST_ACC_R][HIT_RESERVED] = 6
	L2_cache_stats_breakdown[CONST_ACC_R][MISS] = 2
	L2_cache_stats_breakdown[GLOBAL_ACC_W][HIT] = 5281
	L2_cache_stats_breakdown[GLOBAL_ACC_W][HIT_RESERVED] = 863
	L2_cache_stats_breakdown[GLOBAL_ACC_W][MISS] = 2048
	L2_cache_stats_breakdown[GLOBAL_ACC_W][RESERVATION_FAIL] = 17
	L2_cache_stats_breakdown[LOCAL_ACC_W][HIT] = 34949
	L2_cache_stats_breakdown[LOCAL_ACC_W][HIT_RESERVED] = 46
	L2_cache_stats_breakdown[LOCAL_ACC_W][MISS] = 9368
	L2_cache_stats_breakdown[LOCAL_ACC_W][RESERVATION_FAIL] = 46
	L2_cache_stats_breakdown[L1_WRBK_ACC][HIT] = 3660
	L2_cache_stats_breakdown[L1_WRBK_ACC][MISS] = 1405
	L2_cache_stats_breakdown[INST_ACC_R][HIT] = 12696
	L2_cache_stats_breakdown[INST_ACC_R][HIT_RESERVED] = 151
	L2_cache_stats_breakdown[INST_ACC_R][MISS] = 53
	L2_cache_stats_breakdown[INST_ACC_R][RESERVATION_FAIL] = 9736
L2_cache_data_port_util = 0.129
L2_cache_fill_port_util = 0.027

icnt_total_pkts_mem_to_simt=173480
icnt_total_pkts_simt_to_mem=292686
LD_mem_lat_dist  0 0 0 0 0 0 0 0 0 0 0 0 0 0 0 0 0 0 0 0 0 0 0 0 0 0 0
ST_mem_lat_dist  0 0 0 0 0 0 0 0 0 0 0 0 0 0 0 0 0 0 0 0 0 0 0 0 0 0 0
----------------------------Interconnect-DETAILS--------------------------------
Class 0:
Packet latency average = 25.4656
	minimum = 6
	maximum = 2188
Network latency average = 19.1366
	minimum = 6
	maximum = 2122
Slowest packet = 1276
Flit latency average = 19.5093
	minimum = 6
	maximum = 2118
Slowest flit = 4964
Fragmentation average = 0.584263
	minimum = 0
	maximum = 1793
Injected packet rate average = 0.0355235
	minimum = 0.0313625 (at node 6)
	maximum = 0.0402722 (at node 22)
Accepted packet rate average = 0.0355235
	minimum = 0.0293604 (at node 13)
	maximum = 0.0429699 (at node 22)
Injected flit rate average = 0.104433
	minimum = 0.0822501 (at node 19)
	maximum = 0.126381 (at node 3)
Accepted flit rate average= 0.104433
	minimum = 0.0628822 (at node 1)
	maximum = 0.151381 (at node 22)
Injected packet length average = 2.93983
Accepted packet length average = 2.93983
Total in-flight flits = 0 (0 measured)
====== Overall Traffic Statistics ======
====== Traffic class 0 ======
Packet latency average = 25.4656 (1 samples)
	minimum = 6 (1 samples)
	maximum = 2188 (1 samples)
Network latency average = 19.1366 (1 samples)
	minimum = 6 (1 samples)
	maximum = 2122 (1 samples)
Flit latency average = 19.5093 (1 samples)
	minimum = 6 (1 samples)
	maximum = 2118 (1 samples)
Fragmentation average = 0.584263 (1 samples)
	minimum = 0 (1 samples)
	maximum = 1793 (1 samples)
Injected packet rate average = 0.0355235 (1 samples)
	minimum = 0.0313625 (1 samples)
	maximum = 0.0402722 (1 samples)
Accepted packet rate average = 0.0355235 (1 samples)
	minimum = 0.0293604 (1 samples)
	maximum = 0.0429699 (1 samples)
Injected flit rate average = 0.104433 (1 samples)
	minimum = 0.0822501 (1 samples)
	maximum = 0.126381 (1 samples)
Accepted flit rate average = 0.104433 (1 samples)
	minimum = 0.0628822 (1 samples)
	maximum = 0.151381 (1 samples)
Injected packet size average = 2.93983 (1 samples)
Accepted packet size average = 2.93983 (1 samples)
Hops average = 1 (1 samples)
----------------------------END-of-Interconnect-DETAILS-------------------------


gpgpu_simulation_time = 0 days, 0 hrs, 2 min, 14 sec (134 sec)
gpgpu_simulation_rate = 467780 (inst/sec)
gpgpu_simulation_rate = 1233 (cycle/sec)
GPGPU-Sim: synchronize waiting for inactive GPU simulation
GPGPU-Sim API: Stream Manager State
GPGPU-Sim: detected inactive GPU simulation thread

checksum=75ef40cb5b8e
Kernel Time: 133123.796875 
