

        *** GPGPU-Sim Simulator Version 3.2.2  [build 0] ***


GPGPU-Sim PTX: simulation mode 0 (can change with PTX_SIM_MODE_FUNC environment variable:
               1=functional simulation only, 0=detailed performance simulator)
GPGPU-Sim: Configuration options:

-network_mode                           1 # Interconnection network mode
-inter_config_file   config_fermi_islip.icnt # Interconnection network config file
-gpgpu_ptx_use_cuobjdump                    1 # Use cuobjdump to extract ptx and sass from binaries
-gpgpu_experimental_lib_support                    0 # Try to extract code from cuda libraries [Broken because of unknown cudaGetExportTable]
-gpgpu_ptx_convert_to_ptxplus                    0 # Convert SASS (native ISA) to ptxplus and run ptxplus
-gpgpu_ptx_force_max_capability                   20 # Force maximum compute capability
-gpgpu_ptx_inst_debug_to_file                    0 # Dump executed instructions' debug information to file
-gpgpu_ptx_inst_debug_file       inst_debug.txt # Executed instructions' debug output file
-gpgpu_ptx_inst_debug_thread_uid                    1 # Thread UID for executed instructions' debug output
-gpgpu_simd_model                       1 # 1 = post-dominator
-gpgpu_shader_core_pipeline              1536:32 # shader core pipeline config, i.e., {<nthread>:<warpsize>}
-gpgpu_tex_cache:l1  4:128:24,L:R:m:N:L,F:128:4,128:2 # per-shader L1 texture cache  (READ-ONLY) config  {<nsets>:<bsize>:<assoc>,<rep>:<wr>:<alloc>:<wr_alloc>,<mshr>:<N>:<merge>,<mq>:<rf>}
-gpgpu_const_cache:l1 64:64:2,L:R:f:N:L,A:2:32,4 # per-shader L1 constant memory cache  (READ-ONLY) config  {<nsets>:<bsize>:<assoc>,<rep>:<wr>:<alloc>:<wr_alloc>,<mshr>:<N>:<merge>,<mq>} 
-gpgpu_cache:il1     4:128:4,L:R:f:N:L,A:2:32,4 # shader L1 instruction cache config  {<nsets>:<bsize>:<assoc>,<rep>:<wr>:<alloc>:<wr_alloc>,<mshr>:<N>:<merge>,<mq>} 
-gpgpu_cache:dl1     32:128:4,L:L:m:N:H,A:32:8,8 # per-shader L1 data cache config  {<nsets>:<bsize>:<assoc>,<rep>:<wr>:<alloc>:<wr_alloc>,<mshr>:<N>:<merge>,<mq> | none}
-gpgpu_cache:dl1PrefL1                 none # per-shader L1 data cache config  {<nsets>:<bsize>:<assoc>,<rep>:<wr>:<alloc>:<wr_alloc>,<mshr>:<N>:<merge>,<mq> | none}
-gpgpu_cache:dl1PreShared                 none # per-shader L1 data cache config  {<nsets>:<bsize>:<assoc>,<rep>:<wr>:<alloc>:<wr_alloc>,<mshr>:<N>:<merge>,<mq> | none}
-gmem_skip_L1D                          0 # global memory access skip L1D cache (implements -Xptxas -dlcm=cg, default=no skip)
-gpgpu_perfect_mem                      0 # enable perfect memory mode (no cache miss)
-n_regfile_gating_group                    4 # group of lanes that should be read/written together)
-gpgpu_clock_gated_reg_file                    0 # enable clock gated reg file for power calculations
-gpgpu_clock_gated_lanes                    0 # enable clock gated lanes for power calculations
-gpgpu_shader_registers                32768 # Number of registers per shader core. Limits number of concurrent CTAs. (default 8192)
-gpgpu_shader_cta                       8 # Maximum number of concurrent CTAs in shader (default 8)
-gpgpu_num_cta_barriers                   16 # Maximum number of named barriers per CTA (default 16)
-gpgpu_n_clusters                      15 # number of processing clusters
-gpgpu_n_cores_per_cluster                    1 # number of simd cores per cluster
-gpgpu_n_cluster_ejection_buffer_size                    8 # number of packets in ejection buffer
-gpgpu_n_ldst_response_buffer_size                    2 # number of response packets in ld/st unit ejection buffer
-gpgpu_shmem_size                   16384 # Size of shared memory per shader core (default 16kB)
-gpgpu_shmem_size                   49152 # Size of shared memory per shader core (default 16kB)
-gpgpu_shmem_size_PrefL1                16384 # Size of shared memory per shader core (default 16kB)
-gpgpu_shmem_size_PrefShared                16384 # Size of shared memory per shader core (default 16kB)
-gpgpu_shmem_num_banks                   32 # Number of banks in the shared memory in each shader core (default 16)
-gpgpu_shmem_limited_broadcast                    0 # Limit shared memory to do one broadcast per cycle (default on)
-gpgpu_shmem_warp_parts                    1 # Number of portions a warp is divided into for shared memory bank conflict check 
-gpgpu_warpdistro_shader                   -1 # Specify which shader core to collect the warp size distribution from
-gpgpu_warp_issue_shader                    0 # Specify which shader core to collect the warp issue distribution from
-gpgpu_local_mem_map                    1 # Mapping from local memory space address to simulated GPU physical address space (default = enabled)
-gpgpu_num_reg_banks                   16 # Number of register banks (default = 8)
-gpgpu_reg_bank_use_warp_id                    0 # Use warp ID in mapping registers to banks (default = off)
-gpgpu_operand_collector_num_units_sp                    6 # number of collector units (default = 4)
-gpgpu_operand_collector_num_units_sfu                    8 # number of collector units (default = 4)
-gpgpu_operand_collector_num_units_mem                    2 # number of collector units (default = 2)
-gpgpu_operand_collector_num_units_gen                    0 # number of collector units (default = 0)
-gpgpu_operand_collector_num_in_ports_sp                    2 # number of collector unit in ports (default = 1)
-gpgpu_operand_collector_num_in_ports_sfu                    1 # number of collector unit in ports (default = 1)
-gpgpu_operand_collector_num_in_ports_mem                    1 # number of collector unit in ports (default = 1)
-gpgpu_operand_collector_num_in_ports_gen                    0 # number of collector unit in ports (default = 0)
-gpgpu_operand_collector_num_out_ports_sp                    2 # number of collector unit in ports (default = 1)
-gpgpu_operand_collector_num_out_ports_sfu                    1 # number of collector unit in ports (default = 1)
-gpgpu_operand_collector_num_out_ports_mem                    1 # number of collector unit in ports (default = 1)
-gpgpu_operand_collector_num_out_ports_gen                    0 # number of collector unit in ports (default = 0)
-gpgpu_coalesce_arch                   13 # Coalescing arch (default = 13, anything else is off for now)
-gpgpu_num_sched_per_core                    2 # Number of warp schedulers per core
-gpgpu_max_insn_issue_per_warp                    1 # Max number of instructions that can be issued per warp in one cycle by scheduler
-gpgpu_simt_core_sim_order                    1 # Select the simulation order of cores in a cluster (0=Fix, 1=Round-Robin)
-gpgpu_pipeline_widths        2,1,1,2,1,1,2 # Pipeline widths ID_OC_SP,ID_OC_SFU,ID_OC_MEM,OC_EX_SP,OC_EX_SFU,OC_EX_MEM,EX_WB
-gpgpu_num_sp_units                     2 # Number of SP units (default=1)
-gpgpu_num_sfu_units                    1 # Number of SF units (default=1)
-gpgpu_num_mem_units                    1 # Number if ldst units (default=1) WARNING: not hooked up to anything
-gpgpu_scheduler                      gto # Scheduler configuration: < lrr | gto | two_level_active > If two_level_active:<num_active_warps>:<inner_prioritization>:<outer_prioritization>For complete list of prioritization values see shader.h enum scheduler_prioritization_typeDefault: gto
-gpgpu_dram_scheduler                    1 # 0 = fifo, 1 = FR-FCFS (defaul)
-gpgpu_dram_partition_queues              8:8:8:8 # i2$:$2d:d2$:$2i
-l2_ideal                               0 # Use a ideal L2 cache that always hit
-gpgpu_cache:dl2     64:128:8,L:B:m:W:L,A:32:4,4:0,32 # unified banked L2 data cache config  {<nsets>:<bsize>:<assoc>,<rep>:<wr>:<alloc>:<wr_alloc>,<mshr>:<N>:<merge>,<mq>}
-gpgpu_cache:dl2_texture_only                    0 # L2 cache used for texture only
-gpgpu_n_mem                            6 # number of memory modules (e.g. memory controllers) in gpu
-gpgpu_n_sub_partition_per_mchannel                    2 # number of memory subpartition in each memory module
-gpgpu_n_mem_per_ctrlr                    2 # number of memory chips per memory controller
-gpgpu_memlatency_stat                   14 # track and display latency statistics 0x2 enables MC, 0x4 enables queue logs
-gpgpu_frfcfs_dram_sched_queue_size                   16 # 0 = unlimited (default); # entries per chip
-gpgpu_dram_return_queue_size                  116 # 0 = unlimited (default); # entries per chip
-gpgpu_dram_buswidth                    4 # default = 4 bytes (8 bytes per cycle at DDR)
-gpgpu_dram_burst_length                    8 # Burst length of each DRAM request (default = 4 data bus cycle)
-dram_data_command_freq_ratio                    1 # Frequency ratio between DRAM data bus and command bus (default = 2 times, i.e. DDR)
-gpgpu_dram_timing_opt nbk=16:CCD=2:RRD=6:RCD=12:RAS=28:RP=12:RC=40: CL=12:WL=4:CDLR=5:WR=12:nbkgrp=4:CCDL=3:RTPL=2 # DRAM timing parameters = {nbk:tCCD:tRRD:tRCD:tRAS:tRP:tRC:CL:WL:tCDLR:tWR:nbkgrp:tCCDL:tRTPL}
-rop_latency                          120 # ROP queue latency (default 85)
-dram_latency                         100 # DRAM latency (default 30)
-gpgpu_mem_addr_mapping dramid@8;00000000.00000000.00000000.00000000.0000RRRR.RRRRRRRR.BBBCCCCB.CCSSSSSS # mapping memory address to dram model {dramid@<start bit>;<memory address map>}
-gpgpu_mem_addr_test                    0 # run sweep test to check address mapping for aliased address
-gpgpu_mem_address_mask                    1 # 0 = old addressing mask, 1 = new addressing mask, 2 = new add. mask + flipped bank sel and chip sel bits
-gpuwattch_xml_file  gpuwattch_gtx480.xml # GPUWattch XML file
-power_simulation_enabled                    0 # Turn on power simulator (1=On, 0=Off)
-power_per_cycle_dump                    0 # Dump detailed power output each cycle
-power_trace_enabled                    0 # produce a file for the power trace (1=On, 0=Off)
-power_trace_zlevel                     6 # Compression level of the power trace output log (0=no comp, 9=highest)
-steady_power_levels_enabled                    0 # produce a file for the steady power levels (1=On, 0=Off)
-steady_state_definition                  8:4 # allowed deviation:number of samples
-gpgpu_max_cycle                        0 # terminates gpu simulation early (0 = no limit)
-gpgpu_max_insn                         0 # terminates gpu simulation early (0 = no limit)
-gpgpu_max_cta                          0 # terminates gpu simulation early (0 = no limit)
-gpgpu_runtime_stat                   500 # display runtime statistics such as dram utilization {<freq>:<flag>}
-liveness_message_freq                    1 # Minimum number of seconds between simulation liveness messages (0 = always print)
-gpgpu_flush_l1_cache                    0 # Flush L1 cache at the end of each kernel call
-gpgpu_flush_l2_cache                    0 # Flush L2 cache at the end of each kernel call
-gpgpu_deadlock_detect                    1 # Stop the simulation at deadlock (1=on (default), 0=off)
-gpgpu_ptx_instruction_classification                    0 # if enabled will classify ptx instruction types per kernel (Max 255 kernels now)
-gpgpu_ptx_sim_mode                     0 # Select between Performance (default) or Functional simulation (1)
-gpgpu_clock_domains 700.0:700.0:700.0:924.0 # Clock Domain Frequencies in MhZ {<Core Clock>:<ICNT Clock>:<L2 Clock>:<DRAM Clock>}
-gpgpu_max_concurrent_kernel                    8 # maximum kernels that can run concurrently on GPU
-gpgpu_cflog_interval                    0 # Interval between each snapshot in control flow logger
-visualizer_enabled                     0 # Turn on visualizer output (1=On, 0=Off)
-visualizer_outputfile                 NULL # Specifies the output log file for visualizer
-visualizer_zlevel                      6 # Compression level of the visualizer output log (0=no comp, 9=highest)
-trace_enabled                          0 # Turn on traces
-trace_components                    none # comma seperated list of traces to enable. Complete list found in trace_streams.tup. Default none
-trace_sampling_core                    0 # The core which is printed using CORE_DPRINTF. Default 0
-trace_sampling_memory_partition                   -1 # The memory partition which is printed using MEMPART_DPRINTF. Default -1 (i.e. all)
-enable_ptx_file_line_stats                    1 # Turn on PTX source line statistic profiling. (1 = On)
-ptx_line_stats_filename gpgpu_inst_stats.txt # Output file for PTX source line statistics.
-save_embedded_ptx                      0 # saves ptx files embedded in binary as <n>.ptx
-keep                                   0 # keep intermediate files created by GPGPU-Sim when interfacing with external programs
-gpgpu_ptx_save_converted_ptxplus                    0 # Saved converted ptxplus to a file
-ptx_opcode_latency_int         4,13,4,5,145 # Opcode latencies for integers <ADD,MAX,MUL,MAD,DIV>Default 1,1,19,25,145
-ptx_opcode_latency_fp          4,13,4,5,39 # Opcode latencies for single precision floating points <ADD,MAX,MUL,MAD,DIV>Default 1,1,1,1,30
-ptx_opcode_latency_dp         8,19,8,8,330 # Opcode latencies for double precision floating points <ADD,MAX,MUL,MAD,DIV>Default 8,8,8,8,335
-ptx_opcode_initiation_int            1,2,2,1,8 # Opcode initiation intervals for integers <ADD,MAX,MUL,MAD,DIV>Default 1,1,4,4,32
-ptx_opcode_initiation_fp            1,2,1,1,4 # Opcode initiation intervals for single precision floating points <ADD,MAX,MUL,MAD,DIV>Default 1,1,1,1,5
-ptx_opcode_initiation_dp         8,16,8,8,130 # Opcode initiation intervals for double precision floating points <ADD,MAX,MUL,MAD,DIV>Default 8,8,8,8,130
DRAM Timing Options:
nbk                                    16 # number of banks
CCD                                     2 # column to column delay
RRD                                     6 # minimal delay between activation of rows in different banks
RCD                                    12 # row to column delay
RAS                                    28 # time needed to activate row
RP                                     12 # time needed to precharge (deactivate) row
RC                                     40 # row cycle time
CDLR                                    5 # switching from write to read (changes tWTR)
WR                                     12 # last data-in to row precharge
CL                                     12 # CAS latency
WL                                      4 # Write latency
nbkgrp                                  4 # number of bank groups
CCDL                                    3 # column to column delay between accesses to different bank groups
RTPL                                    2 # read to precharge delay between accesses to different bank groups
Total number of memory sub partition = 12
addr_dec_mask[CHIP]  = 0000000000000000 	high:64 low:0
addr_dec_mask[BK]    = 000000000000e100 	high:16 low:8
addr_dec_mask[ROW]   = 000000000fff0000 	high:28 low:16
addr_dec_mask[COL]   = 0000000000001eff 	high:13 low:0
addr_dec_mask[BURST] = 000000000000003f 	high:6 low:0
sub_partition_id_mask = 0000000000000100
GPGPU-Sim uArch: clock freqs: 700000000.000000:700000000.000000:700000000.000000:924000000.000000
GPGPU-Sim uArch: clock periods: 0.00000000142857142857:0.00000000142857142857:0.00000000142857142857:0.00000000108225108225
*** Initializing Memory Statistics ***
GPGPU-Sim uArch: interconnect node map (shaderID+MemID to icntID)
GPGPU-Sim uArch: Memory nodes ID start from index: 15
GPGPU-Sim uArch:    0   1   2   3   4
GPGPU-Sim uArch:    5   6   7   8   9
GPGPU-Sim uArch:   10  11  12  13  14
GPGPU-Sim uArch:   15  16  17  18  19
GPGPU-Sim uArch:   20  21  22  23  24
GPGPU-Sim uArch:   25  26
GPGPU-Sim uArch: interconnect node reverse map (icntID to shaderID+MemID)
GPGPU-Sim uArch: Memory nodes start from ID: 15
GPGPU-Sim uArch:    0   1   2   3   4
GPGPU-Sim uArch:    5   6   7   8   9
GPGPU-Sim uArch:   10  11  12  13  14
GPGPU-Sim uArch:   15  16  17  18  19
GPGPU-Sim uArch:   20  21  22  23  24
GPGPU-Sim uArch:   25  26
316bcbff5f8f022bb22b20bb4721e93e  /sciclone/data20/adwait/applications/benchmarks/CUDA/RAY/gpgpu_ptx_sim__RAY
GPGPU-Sim uArch: performance model initialization complete.
GPGPU-Sim PTX: __cudaRegisterFatBinary, fat_cubin_handle = 1, filename=rayTracing.cu
self exe links to: /sciclone/data20/adwait/applications/benchmarks/CUDA/RAY/gpgpu_ptx_sim__RAY
Running md5sum using "md5sum /sciclone/data20/adwait/applications/benchmarks/CUDA/RAY/gpgpu_ptx_sim__RAY "
Parsing file _cuobjdump_complete_output_Yg3rJa
######### cuobjdump parser ########
## Adding new section ELF
Adding arch: sm_20
Adding identifier: rayTracing.cu
## Adding new section PTX
Adding ptx filename: _cuobjdump_1.ptx
Adding arch: sm_20
Adding identifier: rayTracing.cu
Done parsing!!!
GPGPU-Sim PTX: __cudaRegisterFunction _Z6renderPjP4Nodejjff : hostFun 0x0x40ce13, fat_cubin_handle = 1
GPGPU-Sim PTX: allocating stack frame region for .param "__cudaretf__Zmi6float3S_" from 0x0 to 0xc
GPGPU-Sim PTX: allocating stack frame region for .param "__cudaparmf1__Zmi6float3S_" from 0xc to 0x18
GPGPU-Sim PTX: allocating stack frame region for .param "__cudaparmf2__Zmi6float3S_" from 0x18 to 0x24
GPGPU-Sim PTX: allocating stack frame region for .param "__cudaretf__Z9normalize6float3" from 0x0 to 0xc
GPGPU-Sim PTX: allocating stack frame region for .param "__cudaparmf1__Z9normalize6float3" from 0xc to 0x18
GPGPU-Sim PTX: allocating stack frame region for .param "__cudaretf__Z18intersectionSphere5Rayon6float3f" from 0x0 to 0x4
GPGPU-Sim PTX: allocating stack frame region for .param "__cudaparmf1__Z18intersectionSphere5Rayon6float3f" from 0x4 to 0x1c
GPGPU-Sim PTX: allocating stack frame region for .param "__cudaparmf2__Z18intersectionSphere5Rayon6float3f" from 0x1c to 0x28
GPGPU-Sim PTX: allocating stack frame region for .param "__cudaparmf3__Z18intersectionSphere5Rayon6float3f" from 0x28 to 0x2c
GPGPU-Sim PTX: allocating stack frame region for .param "__cudaretf__Z16intersectionPlan5Rayon6float3S0_" from 0x0 to 0x4
GPGPU-Sim PTX: allocating stack frame region for .param "__cudaparmf1__Z16intersectionPlan5Rayon6float3S0_" from 0x4 to 0x1c
GPGPU-Sim PTX: allocating stack frame region for .param "__cudaparmf2__Z16intersectionPlan5Rayon6float3S0_" from 0x1c to 0x28
GPGPU-Sim PTX: allocating stack frame region for .param "__cudaparmf3__Z16intersectionPlan5Rayon6float3S0_" from 0x28 to 0x34
GPGPU-Sim PTX: allocating stack frame region for .param "__cudaretf__Z10getNormale6float3S_" from 0x0 to 0xc
GPGPU-Sim PTX: allocating stack frame region for .param "__cudaparmf1__Z10getNormale6float3S_" from 0xc to 0x18
GPGPU-Sim PTX: allocating stack frame region for .param "__cudaparmf2__Z10getNormale6float3S_" from 0x18 to 0x24
GPGPU-Sim PTX: allocating stack frame region for .param "__cudaretf__Z11getNormaleP6float3" from 0x0 to 0xc
GPGPU-Sim PTX: allocating stack frame region for .param "__cudaparmf1__Z11getNormaleP6float3" from 0xc to 0x18
GPGPU-Sim PTX: allocating stack frame region for .param "__cudaretf__Z14rgbaFloatToInt6float4" from 0x0 to 0x4
GPGPU-Sim PTX: allocating stack frame region for .param "__cudaparmf1__Z14rgbaFloatToInt6float4" from 0x4 to 0x14
GPGPU-Sim PTX: allocating stack frame region for .param "__cudaretf__Z12notShadowRayP4Node6float3S1_f" from 0x0 to 0x4
GPGPU-Sim PTX: allocating stack frame region for .param "__cudaparmf1__Z12notShadowRayP4Node6float3S1_f" from 0x4 to 0xc
GPGPU-Sim PTX: allocating stack frame region for .param "__cudaparmf2__Z12notShadowRayP4Node6float3S1_f" from 0xc to 0x18
GPGPU-Sim PTX: allocating stack frame region for .param "__cudaparmf3__Z12notShadowRayP4Node6float3S1_f" from 0x18 to 0x24
GPGPU-Sim PTX: allocating stack frame region for .param "__cudaparmf4__Z12notShadowRayP4Node6float3S1_f" from 0x24 to 0x28
GPGPU-Sim PTX: allocating stack frame region for .param "__cudaretf__Z15float2int_pow20f" from 0x0 to 0x4
GPGPU-Sim PTX: allocating stack frame region for .param "__cudaparmf1__Z15float2int_pow20f" from 0x4 to 0x8
GPGPU-Sim PTX: allocating stack frame region for .param "__cudaretf__Z15float2int_pow50f" from 0x0 to 0x4
GPGPU-Sim PTX: allocating stack frame region for .param "__cudaparmf1__Z15float2int_pow50f" from 0x4 to 0x8
GPGPU-Sim PTX: allocating stack frame region for .param "__cudaparmf1__ZN4dim3C1Ejjj" from 0x0 to 0x8
GPGPU-Sim PTX: allocating stack frame region for .param "__cudaparmf2__ZN4dim3C1Ejjj" from 0x8 to 0xc
GPGPU-Sim PTX: allocating stack frame region for .param "__cudaparmf3__ZN4dim3C1Ejjj" from 0xc to 0x10
GPGPU-Sim PTX: allocating stack frame region for .param "__cudaparmf4__ZN4dim3C1Ejjj" from 0x10 to 0x14
GPGPU-Sim PTX: instruction assembly for function '_Zmi6float3S_'...   done.
GPGPU-Sim PTX: finding reconvergence points for '_Zmi6float3S_'...
GPGPU-Sim PTX: Finding dominators for '_Zmi6float3S_'...
GPGPU-Sim PTX: Finding immediate dominators for '_Zmi6float3S_'...
GPGPU-Sim PTX: Finding postdominators for '_Zmi6float3S_'...
GPGPU-Sim PTX: Finding immediate postdominators for '_Zmi6float3S_'...
GPGPU-Sim PTX: pre-decoding instructions for '_Zmi6float3S_'...
GPGPU-Sim PTX: reconvergence points for _Zmi6float3S_...
GPGPU-Sim PTX: ... end of reconvergence points for _Zmi6float3S_
GPGPU-Sim PTX: ... done pre-decoding instructions for '_Zmi6float3S_'.
GPGPU-Sim PTX: instruction assembly for function '_Z9normalize6float3'...   done.
GPGPU-Sim PTX: finding reconvergence points for '_Z9normalize6float3'...
GPGPU-Sim PTX: Finding dominators for '_Z9normalize6float3'...
GPGPU-Sim PTX: Finding immediate dominators for '_Z9normalize6float3'...
GPGPU-Sim PTX: Finding postdominators for '_Z9normalize6float3'...
GPGPU-Sim PTX: Finding immediate postdominators for '_Z9normalize6float3'...
GPGPU-Sim PTX: pre-decoding instructions for '_Z9normalize6float3'...
GPGPU-Sim PTX: reconvergence points for _Z9normalize6float3...
GPGPU-Sim PTX: ... end of reconvergence points for _Z9normalize6float3
GPGPU-Sim PTX: ... done pre-decoding instructions for '_Z9normalize6float3'.
GPGPU-Sim PTX: instruction assembly for function '_Z18intersectionSphere5Rayon6float3f'...   done.
GPGPU-Sim PTX: finding reconvergence points for '_Z18intersectionSphere5Rayon6float3f'...
GPGPU-Sim PTX: Finding dominators for '_Z18intersectionSphere5Rayon6float3f'...
GPGPU-Sim PTX: Finding immediate dominators for '_Z18intersectionSphere5Rayon6float3f'...
GPGPU-Sim PTX: Finding postdominators for '_Z18intersectionSphere5Rayon6float3f'...
GPGPU-Sim PTX: Finding immediate postdominators for '_Z18intersectionSphere5Rayon6float3f'...
GPGPU-Sim PTX: pre-decoding instructions for '_Z18intersectionSphere5Rayon6float3f'...
GPGPU-Sim PTX: reconvergence points for _Z18intersectionSphere5Rayon6float3f...
GPGPU-Sim PTX:  1 (potential) branch divergence @  PC=0x250 (_1.ptx:173) @%p2 bra $Lt_2_3074;
GPGPU-Sim PTX:    immediate post dominator      @  PC=0x2c0 (_1.ptx:193) mov.f32 %f39, %f32;
GPGPU-Sim PTX:  2 (potential) branch divergence @  PC=0x260 (_1.ptx:175) bra.uni $Lt_2_2818;
GPGPU-Sim PTX:    immediate post dominator      @  PC=0x2c0 (_1.ptx:193) mov.f32 %f39, %f32;
GPGPU-Sim PTX:  3 (potential) branch divergence @  PC=0x280 (_1.ptx:180) @!%p3 bra $Lt_2_3586;
GPGPU-Sim PTX:    immediate post dominator      @  PC=0x2c0 (_1.ptx:193) mov.f32 %f39, %f32;
GPGPU-Sim PTX:  4 (potential) branch divergence @  PC=0x290 (_1.ptx:182) bra.uni $Lt_2_3330;
GPGPU-Sim PTX:    immediate post dominator      @  PC=0x2c0 (_1.ptx:193) mov.f32 %f39, %f32;
GPGPU-Sim PTX: ... end of reconvergence points for _Z18intersectionSphere5Rayon6float3f
GPGPU-Sim PTX: ... done pre-decoding instructions for '_Z18intersectionSphere5Rayon6float3f'.
GPGPU-Sim PTX: instruction assembly for function '_Z16intersectionPlan5Rayon6float3S0_'...   done.
GPGPU-Sim PTX: finding reconvergence points for '_Z16intersectionPlan5Rayon6float3S0_'...
GPGPU-Sim PTX: Finding dominators for '_Z16intersectionPlan5Rayon6float3S0_'...
GPGPU-Sim PTX: Finding immediate dominators for '_Z16intersectionPlan5Rayon6float3S0_'...
GPGPU-Sim PTX: Finding postdominators for '_Z16intersectionPlan5Rayon6float3S0_'...
GPGPU-Sim PTX: Finding immediate postdominators for '_Z16intersectionPlan5Rayon6float3S0_'...
GPGPU-Sim PTX: pre-decoding instructions for '_Z16intersectionPlan5Rayon6float3S0_'...
GPGPU-Sim PTX: reconvergence points for _Z16intersectionPlan5Rayon6float3S0_...
GPGPU-Sim PTX:  1 (potential) branch divergence @  PC=0x320 (_1.ptx:214) @!%p1 bra $Lt_3_2050;
GPGPU-Sim PTX:    immediate post dominator      @  PC=0x368 (_1.ptx:227) mov.f32 %f14, %f9;
GPGPU-Sim PTX:  2 (potential) branch divergence @  PC=0x330 (_1.ptx:216) bra.uni $Lt_3_1794;
GPGPU-Sim PTX:    immediate post dominator      @  PC=0x368 (_1.ptx:227) mov.f32 %f14, %f9;
GPGPU-Sim PTX: ... end of reconvergence points for _Z16intersectionPlan5Rayon6float3S0_
GPGPU-Sim PTX: ... done pre-decoding instructions for '_Z16intersectionPlan5Rayon6float3S0_'.
GPGPU-Sim PTX: instruction assembly for function '_Z10getNormale6float3S_'...   done.
GPGPU-Sim PTX: finding reconvergence points for '_Z10getNormale6float3S_'...
GPGPU-Sim PTX: Finding dominators for '_Z10getNormale6float3S_'...
GPGPU-Sim PTX: Finding immediate dominators for '_Z10getNormale6float3S_'...
GPGPU-Sim PTX: Finding postdominators for '_Z10getNormale6float3S_'...
GPGPU-Sim PTX: Finding immediate postdominators for '_Z10getNormale6float3S_'...
GPGPU-Sim PTX: pre-decoding instructions for '_Z10getNormale6float3S_'...
GPGPU-Sim PTX: reconvergence points for _Z10getNormale6float3S_...
GPGPU-Sim PTX: ... end of reconvergence points for _Z10getNormale6float3S_
GPGPU-Sim PTX: ... done pre-decoding instructions for '_Z10getNormale6float3S_'.
GPGPU-Sim PTX: instruction assembly for function '_Z11getNormaleP6float3'...   done.
GPGPU-Sim PTX: finding reconvergence points for '_Z11getNormaleP6float3'...
GPGPU-Sim PTX: Finding dominators for '_Z11getNormaleP6float3'...
GPGPU-Sim PTX: Finding immediate dominators for '_Z11getNormaleP6float3'...
GPGPU-Sim PTX: Finding postdominators for '_Z11getNormaleP6float3'...
GPGPU-Sim PTX: Finding immediate postdominators for '_Z11getNormaleP6float3'...
GPGPU-Sim PTX: pre-decoding instructions for '_Z11getNormaleP6float3'...
GPGPU-Sim PTX: reconvergence points for _Z11getNormaleP6float3...
GPGPU-Sim PTX: ... end of reconvergence points for _Z11getNormaleP6float3
GPGPU-Sim PTX: ... done pre-decoding instructions for '_Z11getNormaleP6float3'.
GPGPU-Sim PTX: instruction assembly for function '_Z14rgbaFloatToInt6float4'...   done.
GPGPU-Sim PTX: finding reconvergence points for '_Z14rgbaFloatToInt6float4'...
GPGPU-Sim PTX: Finding dominators for '_Z14rgbaFloatToInt6float4'...
GPGPU-Sim PTX: Finding immediate dominators for '_Z14rgbaFloatToInt6float4'...
GPGPU-Sim PTX: Finding postdominators for '_Z14rgbaFloatToInt6float4'...
GPGPU-Sim PTX: Finding immediate postdominators for '_Z14rgbaFloatToInt6float4'...
GPGPU-Sim PTX: pre-decoding instructions for '_Z14rgbaFloatToInt6float4'...
GPGPU-Sim PTX: reconvergence points for _Z14rgbaFloatToInt6float4...
GPGPU-Sim PTX: ... end of reconvergence points for _Z14rgbaFloatToInt6float4
GPGPU-Sim PTX: ... done pre-decoding instructions for '_Z14rgbaFloatToInt6float4'.
GPGPU-Sim PTX: allocating global region for "cnode" from 0x100 to 0x1a0 (global memory space)
GPGPU-Sim PTX: instruction assembly for function '_Z12notShadowRayP4Node6float3S1_f'...   done.
GPGPU-Sim PTX: finding reconvergence points for '_Z12notShadowRayP4Node6float3S1_f'...
GPGPU-Sim PTX: Finding dominators for '_Z12notShadowRayP4Node6float3S1_f'...
GPGPU-Sim PTX: Finding immediate dominators for '_Z12notShadowRayP4Node6float3S1_f'...
GPGPU-Sim PTX: Finding postdominators for '_Z12notShadowRayP4Node6float3S1_f'...
GPGPU-Sim PTX: Finding immediate postdominators for '_Z12notShadowRayP4Node6float3S1_f'...
GPGPU-Sim PTX: pre-decoding instructions for '_Z12notShadowRayP4Node6float3S1_f'...
GPGPU-Sim PTX: reconvergence points for _Z12notShadowRayP4Node6float3S1_f...
GPGPU-Sim PTX:  1 (potential) branch divergence @  PC=0x638 (_1.ptx:364) @%p1 bra $Lt_7_8450;
GPGPU-Sim PTX:    immediate post dominator      @  PC=0x828 (_1.ptx:441) mov.f32 %f58, 0f00000000;    // 0
GPGPU-Sim PTX:  2 (potential) branch divergence @  PC=0x658 (_1.ptx:369) @!%p2 bra $Lt_7_8962;
GPGPU-Sim PTX:    immediate post dominator      @  PC=0x6b8 (_1.ptx:385) mov.f32 %f28, %f20;
GPGPU-Sim PTX:  3 (potential) branch divergence @  PC=0x668 (_1.ptx:371) bra.uni $Lt_7_8706;
GPGPU-Sim PTX:    immediate post dominator      @  PC=0x6b8 (_1.ptx:385) mov.f32 %f28, %f20;
GPGPU-Sim PTX:  4 (potential) branch divergence @  PC=0x6c0 (_1.ptx:386) bra.uni $Lt_7_8194;
GPGPU-Sim PTX:    immediate post dominator      @  PC=0x828 (_1.ptx:441) mov.f32 %f58, 0f00000000;    // 0
GPGPU-Sim PTX:  5 (potential) branch divergence @  PC=0x7b0 (_1.ptx:418) @%p5 bra $Lt_7_9474;
GPGPU-Sim PTX:    immediate post dominator      @  PC=0x820 (_1.ptx:438) mov.f32 %f28, %f51;
GPGPU-Sim PTX:  6 (potential) branch divergence @  PC=0x7c0 (_1.ptx:420) bra.uni $Lt_7_9730;
GPGPU-Sim PTX:    immediate post dominator      @  PC=0x820 (_1.ptx:438) mov.f32 %f28, %f51;
GPGPU-Sim PTX:  7 (potential) branch divergence @  PC=0x7e0 (_1.ptx:425) @!%p6 bra $Lt_7_9986;
GPGPU-Sim PTX:    immediate post dominator      @  PC=0x820 (_1.ptx:438) mov.f32 %f28, %f51;
GPGPU-Sim PTX:  8 (potential) branch divergence @  PC=0x7f0 (_1.ptx:427) bra.uni $Lt_7_9730;
GPGPU-Sim PTX:    immediate post dominator      @  PC=0x820 (_1.ptx:438) mov.f32 %f28, %f51;
GPGPU-Sim PTX:  9 (potential) branch divergence @  PC=0x838 (_1.ptx:443) @!%p7 bra $Lt_7_10242;
GPGPU-Sim PTX:    immediate post dominator      @  PC=0x8e8 (_1.ptx:468) add.s32 %r1, %r1, 1;
GPGPU-Sim PTX: 10 (potential) branch divergence @  PC=0x8d8 (_1.ptx:463) @!%p8 bra $Lt_7_10242;
GPGPU-Sim PTX:    immediate post dominator      @  PC=0x8e8 (_1.ptx:468) add.s32 %r1, %r1, 1;
GPGPU-Sim PTX: 11 (potential) branch divergence @  PC=0x908 (_1.ptx:472) @%p9 bra $Lt_7_10754;
GPGPU-Sim PTX:    immediate post dominator      @  PC=0x960 (_1.ptx:486) selp.s32 %r10, 1, 0, %p11;
GPGPU-Sim PTX: 12 (potential) branch divergence @  PC=0x930 (_1.ptx:477) @%p10 bra $L_7_7170;
GPGPU-Sim PTX:    immediate post dominator      @  PC=0x960 (_1.ptx:486) selp.s32 %r10, 1, 0, %p11;
GPGPU-Sim PTX: 13 (potential) branch divergence @  PC=0x938 (_1.ptx:478) bra.uni $L_7_7938;
GPGPU-Sim PTX:    immediate post dominator      @  PC=0x960 (_1.ptx:486) selp.s32 %r10, 1, 0, %p11;
GPGPU-Sim PTX: ... end of reconvergence points for _Z12notShadowRayP4Node6float3S1_f
GPGPU-Sim PTX: ... done pre-decoding instructions for '_Z12notShadowRayP4Node6float3S1_f'.
GPGPU-Sim PTX: instruction assembly for function '_Z15float2int_pow20f'...   done.
GPGPU-Sim PTX: finding reconvergence points for '_Z15float2int_pow20f'...
GPGPU-Sim PTX: Finding dominators for '_Z15float2int_pow20f'...
GPGPU-Sim PTX: Finding immediate dominators for '_Z15float2int_pow20f'...
GPGPU-Sim PTX: Finding postdominators for '_Z15float2int_pow20f'...
GPGPU-Sim PTX: Finding immediate postdominators for '_Z15float2int_pow20f'...
GPGPU-Sim PTX: pre-decoding instructions for '_Z15float2int_pow20f'...
GPGPU-Sim PTX: reconvergence points for _Z15float2int_pow20f...
GPGPU-Sim PTX: ... end of reconvergence points for _Z15float2int_pow20f
GPGPU-Sim PTX: ... done pre-decoding instructions for '_Z15float2int_pow20f'.
GPGPU-Sim PTX: instruction assembly for function '_Z15float2int_pow50f'...   done.
GPGPU-Sim PTX: finding reconvergence points for '_Z15float2int_pow50f'...
GPGPU-Sim PTX: Finding dominators for '_Z15float2int_pow50f'...
GPGPU-Sim PTX: Finding immediate dominators for '_Z15float2int_pow50f'...
GPGPU-Sim PTX: Finding postdominators for '_Z15float2int_pow50f'...
GPGPU-Sim PTX: Finding immediate postdominators for '_Z15float2int_pow50f'...
GPGPU-Sim PTX: pre-decoding instructions for '_Z15float2int_pow50f'...
GPGPU-Sim PTX: reconvergence points for _Z15float2int_pow50f...
GPGPU-Sim PTX: ... end of reconvergence points for _Z15float2int_pow50f
GPGPU-Sim PTX: ... done pre-decoding instructions for '_Z15float2int_pow50f'.
GPGPU-Sim PTX: allocating constant region for "MView" from 0x200 to 0x230 (global memory space) 1
GPGPU-Sim PTX: allocating stack frame region for .local "__cuda___cuda_local_var_35463_9_non_const_pile_32240" from 0x0 to 0x50
GPGPU-Sim PTX: instruction assembly for function '_Z6renderPjP4Nodejjff'...   done.
GPGPU-Sim PTX: finding reconvergence points for '_Z6renderPjP4Nodejjff'...
GPGPU-Sim PTX: Finding dominators for '_Z6renderPjP4Nodejjff'...
GPGPU-Sim PTX: Finding immediate dominators for '_Z6renderPjP4Nodejjff'...
GPGPU-Sim PTX: Finding postdominators for '_Z6renderPjP4Nodejjff'...
GPGPU-Sim PTX: Finding immediate postdominators for '_Z6renderPjP4Nodejjff'...
GPGPU-Sim PTX: pre-decoding instructions for '_Z6renderPjP4Nodejjff'...
GPGPU-Sim PTX: reconvergence points for _Z6renderPjP4Nodejjff...
GPGPU-Sim PTX:  1 (potential) branch divergence @  PC=0xdb0 (_1.ptx:663) @%p1 bra $Lt_10_44034;
GPGPU-Sim PTX:    immediate post dominator      @  PC=0x2370 (_1.ptx:1495) exit;
GPGPU-Sim PTX:  2 (potential) branch divergence @  PC=0x1028 (_1.ptx:751) @%p2 bra $Lt_10_45570;
GPGPU-Sim PTX:    immediate post dominator      @  PC=0x11b8 (_1.ptx:815) mov.f32 %f108, 0f00000000;   // 0
GPGPU-Sim PTX:  3 (potential) branch divergence @  PC=0x1048 (_1.ptx:756) @!%p3 bra $Lt_10_46082;
GPGPU-Sim PTX:    immediate post dominator      @  PC=0x1090 (_1.ptx:769) mov.f32 %f87, %f82;
GPGPU-Sim PTX:  4 (potential) branch divergence @  PC=0x1058 (_1.ptx:758) bra.uni $Lt_10_45826;
GPGPU-Sim PTX:    immediate post dominator      @  PC=0x1090 (_1.ptx:769) mov.f32 %f87, %f82;
GPGPU-Sim PTX:  5 (potential) branch divergence @  PC=0x1098 (_1.ptx:770) bra.uni $Lt_10_45314;
GPGPU-Sim PTX:    immediate post dominator      @  PC=0x11b8 (_1.ptx:815) mov.f32 %f108, 0f00000000;   // 0
GPGPU-Sim PTX:  6 (potential) branch divergence @  PC=0x1140 (_1.ptx:793) @%p6 bra $Lt_10_46594;
GPGPU-Sim PTX:    immediate post dominator      @  PC=0x11b0 (_1.ptx:813) mov.f32 %f87, %f101;
GPGPU-Sim PTX:  7 (potential) branch divergence @  PC=0x1150 (_1.ptx:795) bra.uni $Lt_10_46850;
GPGPU-Sim PTX:    immediate post dominator      @  PC=0x11b0 (_1.ptx:813) mov.f32 %f87, %f101;
GPGPU-Sim PTX:  8 (potential) branch divergence @  PC=0x1170 (_1.ptx:800) @!%p7 bra $Lt_10_47106;
GPGPU-Sim PTX:    immediate post dominator      @  PC=0x11b0 (_1.ptx:813) mov.f32 %f87, %f101;
GPGPU-Sim PTX:  9 (potential) branch divergence @  PC=0x1180 (_1.ptx:802) bra.uni $Lt_10_46850;
GPGPU-Sim PTX:    immediate post dominator      @  PC=0x11b0 (_1.ptx:813) mov.f32 %f87, %f101;
GPGPU-Sim PTX: 10 (potential) branch divergence @  PC=0x11f8 (_1.ptx:823) @%p8 bra $Lt_10_47362;
GPGPU-Sim PTX:    immediate post dominator      @  PC=0x1210 (_1.ptx:829) add.s32 %r25, %r25, 1;
GPGPU-Sim PTX: 11 (potential) branch divergence @  PC=0x1230 (_1.ptx:833) @%p9 bra $Lt_10_45058;
GPGPU-Sim PTX:    immediate post dominator      @  PC=0x1238 (_1.ptx:834) mov.f32 %f109, 0f00000000;   // 0
GPGPU-Sim PTX: 12 (potential) branch divergence @  PC=0x1280 (_1.ptx:843) @%p10 bra $Lt_10_48130;
GPGPU-Sim PTX:    immediate post dominator      @  PC=0x2140 (_1.ptx:1416) add.s32 %r23, %r23, 1;
GPGPU-Sim PTX: 13 (potential) branch divergence @  PC=0x1330 (_1.ptx:868) @%p11 bra $Lt_10_48898;
GPGPU-Sim PTX:    immediate post dominator      @  PC=0x13b8 (_1.ptx:888) sub.f32 %f136, %f21, %f119;
GPGPU-Sim PTX: 14 (potential) branch divergence @  PC=0x1350 (_1.ptx:873) bra.uni $Lt_10_48642;
GPGPU-Sim PTX:    immediate post dominator      @  PC=0x13b8 (_1.ptx:888) sub.f32 %f136, %f21, %f119;
GPGPU-Sim PTX: 15 (potential) branch divergence @  PC=0x1430 (_1.ptx:903) @!%p12 bra $Lt_10_49410;
GPGPU-Sim PTX:    immediate post dominator      @  PC=0x1470 (_1.ptx:915) mov.f32 %f153, 0f3d4ccccd;   // 0.05
GPGPU-Sim PTX: 16 (potential) branch divergence @  PC=0x1450 (_1.ptx:908) bra.uni $Lt_10_49154;
GPGPU-Sim PTX:    immediate post dominator      @  PC=0x1470 (_1.ptx:915) mov.f32 %f153, 0f3d4ccccd;   // 0.05
GPGPU-Sim PTX: 17 (potential) branch divergence @  PC=0x1578 (_1.ptx:949) @!%p13 bra $Lt_10_58114;
GPGPU-Sim PTX:    immediate post dominator      @  PC=0x2080 (_1.ptx:1388) add.f32 %f399, %f126, %f126;
GPGPU-Sim PTX: 18 (potential) branch divergence @  PC=0x15c0 (_1.ptx:961) @%p14 bra $Lt_10_49922;
GPGPU-Sim PTX:    immediate post dominator      @  PC=0x17b0 (_1.ptx:1039) mov.f32 %f221, 0f00000000;   // 0
GPGPU-Sim PTX: 19 (potential) branch divergence @  PC=0x15e0 (_1.ptx:966) @!%p15 bra $Lt_10_50434;
GPGPU-Sim PTX:    immediate post dominator      @  PC=0x1638 (_1.ptx:982) mov.f32 %f190, %f183;
GPGPU-Sim PTX: 20 (potential) branch divergence @  PC=0x15f0 (_1.ptx:968) bra.uni $Lt_10_50178;
GPGPU-Sim PTX:    immediate post dominator      @  PC=0x1638 (_1.ptx:982) mov.f32 %f190, %f183;
GPGPU-Sim PTX: 21 (potential) branch divergence @  PC=0x1640 (_1.ptx:983) bra.uni $Lt_10_49666;
GPGPU-Sim PTX:    immediate post dominator      @  PC=0x17b0 (_1.ptx:1039) mov.f32 %f221, 0f00000000;   // 0
GPGPU-Sim PTX: 22 (potential) branch divergence @  PC=0x1738 (_1.ptx:1016) @%p18 bra $Lt_10_50946;
GPGPU-Sim PTX:    immediate post dominator      @  PC=0x17a8 (_1.ptx:1036) mov.f32 %f190, %f214;
GPGPU-Sim PTX: 23 (potential) branch divergence @  PC=0x1748 (_1.ptx:1018) bra.uni $Lt_10_51202;
GPGPU-Sim PTX:    immediate post dominator      @  PC=0x17a8 (_1.ptx:1036) mov.f32 %f190, %f214;
GPGPU-Sim PTX: 24 (potential) branch divergence @  PC=0x1768 (_1.ptx:1023) @!%p19 bra $Lt_10_51458;
GPGPU-Sim PTX:    immediate post dominator      @  PC=0x17a8 (_1.ptx:1036) mov.f32 %f190, %f214;
GPGPU-Sim PTX: 25 (potential) branch divergence @  PC=0x1778 (_1.ptx:1025) bra.uni $Lt_10_51202;
GPGPU-Sim PTX:    immediate post dominator      @  PC=0x17a8 (_1.ptx:1036) mov.f32 %f190, %f214;
GPGPU-Sim PTX: 26 (potential) branch divergence @  PC=0x17c0 (_1.ptx:1041) @!%p20 bra $Lt_10_58370;
GPGPU-Sim PTX:    immediate post dominator      @  PC=0x1828 (_1.ptx:1057) add.s32 %r50, %r50, 1;
GPGPU-Sim PTX: 27 (potential) branch divergence @  PC=0x1818 (_1.ptx:1052) @!%p21 bra $Lt_10_58370;
GPGPU-Sim PTX:    immediate post dominator      @  PC=0x1828 (_1.ptx:1057) add.s32 %r50, %r50, 1;
GPGPU-Sim PTX: 28 (potential) branch divergence @  PC=0x1848 (_1.ptx:1061) @%p22 bra $Lt_10_58882;
GPGPU-Sim PTX:    immediate post dominator      @  PC=0x1880 (_1.ptx:1071) @!%p23 bra $Lt_10_58114;
GPGPU-Sim PTX: 29 (potential) branch divergence @  PC=0x1860 (_1.ptx:1064) @%p23 bra $L_10_42498;
GPGPU-Sim PTX:    immediate post dominator      @  PC=0x1880 (_1.ptx:1071) @!%p23 bra $Lt_10_58114;
GPGPU-Sim PTX: 30 (potential) branch divergence @  PC=0x1868 (_1.ptx:1065) bra.uni $L_10_43266;
GPGPU-Sim PTX:    immediate post dominator      @  PC=0x1880 (_1.ptx:1071) @!%p23 bra $Lt_10_58114;
GPGPU-Sim PTX: 31 (potential) branch divergence @  PC=0x1880 (_1.ptx:1071) @!%p23 bra $Lt_10_58114;
GPGPU-Sim PTX:    immediate post dominator      @  PC=0x2080 (_1.ptx:1388) add.f32 %f399, %f126, %f126;
GPGPU-Sim PTX: 32 (potential) branch divergence @  PC=0x19c8 (_1.ptx:1115) @!%p24 bra $Lt_10_51714;
GPGPU-Sim PTX:    immediate post dominator      @  PC=0x2040 (_1.ptx:1375) mov.f32 %f394, 0f3f4ccccd;   // 0.8
GPGPU-Sim PTX: 33 (potential) branch divergence @  PC=0x19d8 (_1.ptx:1118) bra.uni $LDWendi___isnanf_192_1;
GPGPU-Sim PTX:    immediate post dominator      @  PC=0x2040 (_1.ptx:1375) mov.f32 %f394, 0f3f4ccccd;   // 0.8
GPGPU-Sim PTX: 34 (potential) branch divergence @  PC=0x19f8 (_1.ptx:1124) @!%p25 bra $Lt_10_7682;
GPGPU-Sim PTX:    immediate post dominator      @  PC=0x2040 (_1.ptx:1375) mov.f32 %f394, 0f3f4ccccd;   // 0.8
GPGPU-Sim PTX: 35 (potential) branch divergence @  PC=0x1a00 (_1.ptx:1125) bra.uni $Lt_10_7938;
GPGPU-Sim PTX:    immediate post dominator      @  PC=0x1a20 (_1.ptx:1133) mov.f32 %f272, 0f7f800000;   // ((1.0F)/(0.0F))
GPGPU-Sim PTX: 36 (potential) branch divergence @  PC=0x1a18 (_1.ptx:1130) bra.uni $LDWendi___isnanf_192_1;
GPGPU-Sim PTX:    immediate post dominator      @  PC=0x2040 (_1.ptx:1375) mov.f32 %f394, 0f3f4ccccd;   // 0.8
GPGPU-Sim PTX: 37 (potential) branch divergence @  PC=0x1a30 (_1.ptx:1135) @!%p26 bra $Lt_10_52226;
GPGPU-Sim PTX:    immediate post dominator      @  PC=0x2040 (_1.ptx:1375) mov.f32 %f394, 0f3f4ccccd;   // 0.8
GPGPU-Sim PTX: 38 (potential) branch divergence @  PC=0x1a40 (_1.ptx:1138) bra.uni $LDWendi___isnanf_192_1;
GPGPU-Sim PTX:    immediate post dominator      @  PC=0x2040 (_1.ptx:1375) mov.f32 %f394, 0f3f4ccccd;   // 0.8
GPGPU-Sim PTX: 39 (potential) branch divergence @  PC=0x1a58 (_1.ptx:1142) @!%p27 bra $Lt_10_52738;
GPGPU-Sim PTX:    immediate post dominator      @  PC=0x2040 (_1.ptx:1375) mov.f32 %f394, 0f3f4ccccd;   // 0.8
GPGPU-Sim PTX: 40 (potential) branch divergence @  PC=0x1ab8 (_1.ptx:1155) bra.uni $LDWendi___isnanf_192_1;
GPGPU-Sim PTX:    immediate post dominator      @  PC=0x2040 (_1.ptx:1375) mov.f32 %f394, 0f3f4ccccd;   // 0.8
GPGPU-Sim PTX: 41 (potential) branch divergence @  PC=0x1ad0 (_1.ptx:1159) @!%p29 bra $Lt_10_53250;
GPGPU-Sim PTX:    immediate post dominator      @  PC=0x2040 (_1.ptx:1375) mov.f32 %f394, 0f3f4ccccd;   // 0.8
GPGPU-Sim PTX: 42 (potential) branch divergence @  PC=0x1b20 (_1.ptx:1170) @!%p30 bra $Lt_10_53762;
GPGPU-Sim PTX:    immediate post dominator      @  PC=0x1b40 (_1.ptx:1177) mov.f32 %f268, %f284;
GPGPU-Sim PTX: 43 (potential) branch divergence @  PC=0x1b48 (_1.ptx:1178) bra.uni $LDWendi___isnanf_192_1;
GPGPU-Sim PTX:    immediate post dominator      @  PC=0x2040 (_1.ptx:1375) mov.f32 %f394, 0f3f4ccccd;   // 0.8
GPGPU-Sim PTX: 44 (potential) branch divergence @  PC=0x1b60 (_1.ptx:1183) @!%p31 bra $Lt_10_59394;
GPGPU-Sim PTX:    immediate post dominator      @  PC=0x2040 (_1.ptx:1375) mov.f32 %f394, 0f3f4ccccd;   // 0.8
GPGPU-Sim PTX: 45 (potential) branch divergence @  PC=0x1b88 (_1.ptx:1188) @!%p32 bra $Lt_10_59394;
GPGPU-Sim PTX:    immediate post dominator      @  PC=0x2040 (_1.ptx:1375) mov.f32 %f394, 0f3f4ccccd;   // 0.8
GPGPU-Sim PTX: 46 (potential) branch divergence @  PC=0x1ba0 (_1.ptx:1192) bra.uni $LDWendi___isnanf_192_1;
GPGPU-Sim PTX:    immediate post dominator      @  PC=0x2040 (_1.ptx:1375) mov.f32 %f394, 0f3f4ccccd;   // 0.8
GPGPU-Sim PTX: 47 (potential) branch divergence @  PC=0x1bd8 (_1.ptx:1202) @%p33 bra $Lt_10_54530;
GPGPU-Sim PTX:    immediate post dominator      @  PC=0x1c20 (_1.ptx:1216) sub.s32 %r64, %r64, 127;
GPGPU-Sim PTX: 48 (potential) branch divergence @  PC=0x1c10 (_1.ptx:1211) bra.uni $Lt_10_54274;
GPGPU-Sim PTX:    immediate post dominator      @  PC=0x1c20 (_1.ptx:1216) sub.s32 %r64, %r64, 127;
GPGPU-Sim PTX: 49 (potential) branch divergence @  PC=0x1c58 (_1.ptx:1224) @!%p34 bra $Lt_10_54786;
GPGPU-Sim PTX:    immediate post dominator      @  PC=0x1c78 (_1.ptx:1232) mov.f32 %f302, 0fbf800000;   // -1
GPGPU-Sim PTX: 50 (potential) branch divergence @  PC=0x1eb0 (_1.ptx:1312) @%p35 bra $Lt_10_55298;
GPGPU-Sim PTX:    immediate post dominator      @  PC=0x1ed8 (_1.ptx:1321) mov.f32 %f367, %f365;
GPGPU-Sim PTX: 51 (potential) branch divergence @  PC=0x1f98 (_1.ptx:1346) @!%p38 bra $Lt_10_55810;
GPGPU-Sim PTX:    immediate post dominator      @  PC=0x1fa8 (_1.ptx:1351) mov.f32 %f284, %f386;
GPGPU-Sim PTX: 52 (potential) branch divergence @  PC=0x2018 (_1.ptx:1365) @%p39 bra $Lt_10_56322;
GPGPU-Sim PTX:    immediate post dominator      @  PC=0x2038 (_1.ptx:1372) mov.f32 %f268, %f284;
GPGPU-Sim PTX: 53 (potential) branch divergence @  PC=0x2158 (_1.ptx:1419) @%p40 bra $L_10_42242;
GPGPU-Sim PTX:    immediate post dominator      @  PC=0x2170 (_1.ptx:1424) sub.s32 %r86, %r24, 1;
GPGPU-Sim PTX: 54 (potential) branch divergence @  PC=0x2168 (_1.ptx:1421) @%p41 bra $L_10_41474;
GPGPU-Sim PTX:    immediate post dominator      @  PC=0x2170 (_1.ptx:1424) sub.s32 %r86, %r24, 1;
GPGPU-Sim PTX: 55 (potential) branch divergence @  PC=0x2190 (_1.ptx:1428) @%p42 bra $Lt_10_56834;
GPGPU-Sim PTX:    immediate post dominator      @  PC=0x2288 (_1.ptx:1464) ld.global.u32 %r92, [%rd4+0];
GPGPU-Sim PTX: 56 (potential) branch divergence @  PC=0x2280 (_1.ptx:1461) @%p43 bra $Lt_10_57346;
GPGPU-Sim PTX:    immediate post dominator      @  PC=0x2288 (_1.ptx:1464) ld.global.u32 %r92, [%rd4+0];
GPGPU-Sim PTX: ... end of reconvergence points for _Z6renderPjP4Nodejjff
GPGPU-Sim PTX: ... done pre-decoding instructions for '_Z6renderPjP4Nodejjff'.
GPGPU-Sim PTX: instruction assembly for function '_ZN4dim3C1Ejjj'...   done.
GPGPU-Sim PTX: finding reconvergence points for '_ZN4dim3C1Ejjj'...
GPGPU-Sim PTX: Finding dominators for '_ZN4dim3C1Ejjj'...
GPGPU-Sim PTX: Finding immediate dominators for '_ZN4dim3C1Ejjj'...
GPGPU-Sim PTX: Finding postdominators for '_ZN4dim3C1Ejjj'...
GPGPU-Sim PTX: Finding immediate postdominators for '_ZN4dim3C1Ejjj'...
GPGPU-Sim PTX: pre-decoding instructions for '_ZN4dim3C1Ejjj'...
GPGPU-Sim PTX: reconvergence points for _ZN4dim3C1Ejjj...
GPGPU-Sim PTX: ... end of reconvergence points for _ZN4dim3C1Ejjj
GPGPU-Sim PTX: ... done pre-decoding instructions for '_ZN4dim3C1Ejjj'.
GPGPU-Sim PTX: finished parsing EMBEDDED .ptx file _1.ptx
Adding _cuobjdump_1.ptx with cubin handle 1
GPGPU-Sim PTX: extracting embedded .ptx to temporary file "_ptx_7nRZsd"
Running: cat _ptx_7nRZsd | sed 's/.version 1.5/.version 1.4/' | sed 's/, texmode_independent//' | sed 's/\(\.extern \.const\[1\] .b8 \w\+\)\[\]/\1\[1\]/' | sed 's/const\[.\]/const\[0\]/g' > _ptx2_xGgTTg
GPGPU-Sim PTX: generating ptxinfo using "$CUDA_INSTALL_PATH/bin/ptxas --gpu-name=sm_20 -v _ptx2_xGgTTg --output-file  /dev/null 2> _ptx_7nRZsdinfo"
GPGPU-Sim PTX: Kernel '_Z6renderPjP4Nodejjff' : regs=45, lmem=4, smem=0, cmem=180
GPGPU-Sim PTX: removing ptxinfo using "rm -f _ptx_7nRZsd _ptx2_xGgTTg _ptx_7nRZsdinfo"
GPGPU-Sim PTX: loading globals with explicit initializers... 
GPGPU-Sim PTX: finished loading globals (0 bytes total).
GPGPU-Sim PTX: loading constants with explicit initializers...  done.
GPGPU-Sim PTX: __cudaRegisterVar: hostVar = 0x62fda0; deviceAddress = MView; deviceName = MView
GPGPU-Sim PTX: __cudaRegisterVar: Registering const memory space of 48 bytes
GPGPU-Sim PTX registering constant MView (48 bytes) to name mapping
GPGPU-Sim PTX: __cudaRegisterVar: hostVar = 0x62fde0; deviceAddress = cnode; deviceName = cnode
GPGPU-Sim PTX: __cudaRegisterVar: Registering const memory space of 160 bytes
GPGPU-Sim PTX registering constant cnode (160 bytes) to name mapping
GPGPU-Sim PTX: cudaMemcpyToSymbol: symbol = 0x62fde0
GPGPU-Sim PTX: starting gpgpu_ptx_sim_memcpy_symbol with hostVar 0x0x62fde0
GPGPU-Sim PTX: gpgpu_ptx_sim_memcpy_symbol: Found PTX symbol w/ hostVar=0x62fde0
GPGPU-Sim PTX: gpgpu_ptx_sim_memcpy_symbol: copying const memory 160 bytes  to  symbol cnode+0 @0x100 ...
GPGPU-Sim PTX: cudaMemcpyToSymbol: symbol = 0x62fda0
GPGPU-Sim PTX: starting gpgpu_ptx_sim_memcpy_symbol with hostVar 0x0x62fda0
GPGPU-Sim PTX: gpgpu_ptx_sim_memcpy_symbol: Found PTX symbol w/ hostVar=0x62fda0
GPGPU-Sim PTX: gpgpu_ptx_sim_memcpy_symbol: copying const memory 48 bytes  to  symbol MView+0 @0x200 ...

GPGPU-Sim PTX: cudaLaunch for 0x0x40ce13 (mode=performance simulation) on stream 0
GPGPU-Sim PTX: pushing kernel '_Z6renderPjP4Nodejjff' to stream 0, gridDim= (16,32,1) blockDim = (16,8,1) 
kernel '_Z6renderPjP4Nodejjff' transfer to GPU hardware scheduler
GPGPU-Sim uArch: Shader 1 bind to kernel 1 '_Z6renderPjP4Nodejjff'
GPGPU-Sim uArch: CTA/core = 5, limited by: regs
GPGPU-Sim uArch: core:  1, cta: 0 initialized @(1,0)
GPGPU-Sim uArch: Shader 2 bind to kernel 1 '_Z6renderPjP4Nodejjff'
GPGPU-Sim uArch: core:  2, cta: 0 initialized @(1,0)
GPGPU-Sim uArch: Shader 3 bind to kernel 1 '_Z6renderPjP4Nodejjff'
GPGPU-Sim uArch: core:  3, cta: 0 initialized @(1,0)
GPGPU-Sim uArch: Shader 4 bind to kernel 1 '_Z6renderPjP4Nodejjff'
GPGPU-Sim uArch: core:  4, cta: 0 initialized @(1,0)
GPGPU-Sim uArch: Shader 5 bind to kernel 1 '_Z6renderPjP4Nodejjff'
GPGPU-Sim uArch: core:  5, cta: 0 initialized @(1,0)
GPGPU-Sim uArch: Shader 6 bind to kernel 1 '_Z6renderPjP4Nodejjff'
GPGPU-Sim uArch: core:  6, cta: 0 initialized @(1,0)
GPGPU-Sim uArch: Shader 7 bind to kernel 1 '_Z6renderPjP4Nodejjff'
GPGPU-Sim uArch: core:  7, cta: 0 initialized @(1,0)
GPGPU-Sim uArch: Shader 8 bind to kernel 1 '_Z6renderPjP4Nodejjff'
GPGPU-Sim uArch: core:  8, cta: 0 initialized @(1,0)
GPGPU-Sim uArch: Shader 9 bind to kernel 1 '_Z6renderPjP4Nodejjff'
GPGPU-Sim uArch: core:  9, cta: 0 initialized @(1,0)
GPGPU-Sim uArch: Shader 10 bind to kernel 1 '_Z6renderPjP4Nodejjff'
GPGPU-Sim uArch: core: 10, cta: 0 initialized @(1,0)
GPGPU-Sim uArch: Shader 11 bind to kernel 1 '_Z6renderPjP4Nodejjff'
GPGPU-Sim uArch: core: 11, cta: 0 initialized @(1,0)
GPGPU-Sim uArch: Shader 12 bind to kernel 1 '_Z6renderPjP4Nodejjff'
GPGPU-Sim uArch: core: 12, cta: 0 initialized @(1,0)
GPGPU-Sim uArch: Shader 13 bind to kernel 1 '_Z6renderPjP4Nodejjff'
GPGPU-Sim uArch: core: 13, cta: 0 initialized @(1,0)
GPGPU-Sim uArch: Shader 14 bind to kernel 1 '_Z6renderPjP4Nodejjff'
GPGPU-Sim uArch: core: 14, cta: 0 initialized @(1,0)
GPGPU-Sim uArch: Shader 0 bind to kernel 1 '_Z6renderPjP4Nodejjff'
GPGPU-Sim uArch: core:  0, cta: 0 initialized @(1,0)
GPGPU-Sim uArch: core:  1, cta: 1 initialized @(2,0)
GPGPU-Sim uArch: core:  2, cta: 1 initialized @(2,0)
GPGPU-Sim uArch: core:  3, cta: 1 initialized @(2,0)
GPGPU-Sim uArch: core:  4, cta: 1 initialized @(2,0)
GPGPU-Sim uArch: core:  5, cta: 1 initialized @(2,0)
GPGPU-Sim uArch: core:  6, cta: 1 initialized @(2,0)
GPGPU-Sim uArch: core:  7, cta: 1 initialized @(2,0)
GPGPU-Sim uArch: core:  8, cta: 1 initialized @(2,0)
GPGPU-Sim uArch: core:  9, cta: 1 initialized @(2,0)
GPGPU-Sim uArch: core: 10, cta: 1 initialized @(2,0)
GPGPU-Sim uArch: core: 11, cta: 1 initialized @(2,0)
GPGPU-Sim uArch: core: 12, cta: 1 initialized @(2,0)
GPGPU-Sim uArch: core: 13, cta: 1 initialized @(2,0)
GPGPU-Sim uArch: core: 14, cta: 1 initialized @(2,0)
GPGPU-Sim uArch: core:  0, cta: 1 initialized @(2,0)
GPGPU-Sim uArch: core:  1, cta: 2 initialized @(3,0)
GPGPU-Sim uArch: core:  2, cta: 2 initialized @(3,0)
GPGPU-Sim uArch: core:  3, cta: 2 initialized @(3,0)
GPGPU-Sim uArch: core:  4, cta: 2 initialized @(3,0)
GPGPU-Sim uArch: core:  5, cta: 2 initialized @(3,0)
GPGPU-Sim uArch: core:  6, cta: 2 initialized @(3,0)
GPGPU-Sim uArch: core:  7, cta: 2 initialized @(3,0)
GPGPU-Sim uArch: core:  8, cta: 2 initialized @(3,0)
GPGPU-Sim uArch: core:  9, cta: 2 initialized @(3,0)
GPGPU-Sim uArch: core: 10, cta: 2 initialized @(3,0)
GPGPU-Sim uArch: core: 11, cta: 2 initialized @(3,0)
GPGPU-Sim uArch: core: 12, cta: 2 initialized @(3,0)
GPGPU-Sim uArch: core: 13, cta: 2 initialized @(3,0)
GPGPU-Sim uArch: core: 14, cta: 2 initialized @(3,0)
GPGPU-Sim uArch: core:  0, cta: 2 initialized @(3,0)
GPGPU-Sim uArch: core:  1, cta: 3 initialized @(4,0)
GPGPU-Sim uArch: core:  2, cta: 3 initialized @(4,0)
GPGPU-Sim uArch: core:  3, cta: 3 initialized @(4,0)
GPGPU-Sim uArch: core:  4, cta: 3 initialized @(4,0)
GPGPU-Sim uArch: core:  5, cta: 3 initialized @(4,0)
GPGPU-Sim uArch: core:  6, cta: 3 initialized @(4,0)
GPGPU-Sim uArch: core:  7, cta: 3 initialized @(4,0)
GPGPU-Sim uArch: core:  8, cta: 3 initialized @(4,0)
GPGPU-Sim uArch: core:  9, cta: 3 initialized @(4,0)
GPGPU-Sim uArch: core: 10, cta: 3 initialized @(4,0)
GPGPU-Sim uArch: core: 11, cta: 3 initialized @(4,0)
GPGPU-Sim uArch: core: 12, cta: 3 initialized @(4,0)
GPGPU-Sim uArch: core: 13, cta: 3 initialized @(4,0)
GPGPU-Sim uArch: core: 14, cta: 3 initialized @(4,0)
GPGPU-Sim uArch: core:  0, cta: 3 initialized @(4,0)
GPGPU-Sim uArch: core:  1, cta: 4 initialized @(5,0)
GPGPU-Sim uArch: core:  2, cta: 4 initialized @(5,0)
GPGPU-Sim uArch: core:  3, cta: 4 initialized @(5,0)
GPGPU-Sim uArch: core:  4, cta: 4 initialized @(5,0)
GPGPU-Sim uArch: core:  5, cta: 4 initialized @(5,0)
GPGPU-Sim uArch: core:  6, cta: 4 initialized @(5,0)
GPGPU-Sim uArch: core:  7, cta: 4 initialized @(5,0)
GPGPU-Sim uArch: core:  8, cta: 4 initialized @(5,0)
GPGPU-Sim uArch: core:  9, cta: 4 initialized @(5,0)
GPGPU-Sim uArch: core: 10, cta: 4 initialized @(5,0)
GPGPU-Sim uArch: core: 11, cta: 4 initialized @(5,0)
GPGPU-Sim uArch: core: 12, cta: 4 initialized @(5,0)
GPGPU-Sim uArch: core: 13, cta: 4 initialized @(5,0)
GPGPU-Sim uArch: core: 14, cta: 4 initialized @(5,0)
GPGPU-Sim uArch: core:  0, cta: 4 initialized @(5,0)
GPGPU-Sim uArch: cycles simulated: 500  inst.: 36032 (ipc=72.1) sim_rate=18016 (inst/sec) elapsed = 0:0:00:02 / Fri Mar  4 03:51:55 2016
GPGPU-Sim uArch: cycles simulated: 1000  inst.: 55392 (ipc=55.4) sim_rate=18464 (inst/sec) elapsed = 0:0:00:03 / Fri Mar  4 03:51:56 2016
GPGPU-Sim PTX: 100000 instructions simulated : ctaid=(5,0,0) tid=(15,1,0)
GPGPU-Sim uArch: cycles simulated: 3000  inst.: 110144 (ipc=36.7) sim_rate=27536 (inst/sec) elapsed = 0:0:00:04 / Fri Mar  4 03:51:57 2016
GPGPU-Sim PTX: 200000 instructions simulated : ctaid=(14,1,0) tid=(15,5,0)
GPGPU-Sim uArch: cycles simulated: 4500  inst.: 203488 (ipc=45.2) sim_rate=40697 (inst/sec) elapsed = 0:0:00:05 / Fri Mar  4 03:51:58 2016
GPGPU-Sim uArch: cycles simulated: 5500  inst.: 262368 (ipc=47.7) sim_rate=43728 (inst/sec) elapsed = 0:0:00:06 / Fri Mar  4 03:51:59 2016
GPGPU-Sim PTX: 300000 instructions simulated : ctaid=(7,1,0) tid=(15,7,0)
GPGPU-Sim PTX: 400000 instructions simulated : ctaid=(3,0,0) tid=(15,1,0)
GPGPU-Sim uArch: cycles simulated: 7000  inst.: 452320 (ipc=64.6) sim_rate=64617 (inst/sec) elapsed = 0:0:00:07 / Fri Mar  4 03:52:00 2016
GPGPU-Sim PTX: 500000 instructions simulated : ctaid=(4,0,0) tid=(15,5,0)
GPGPU-Sim PTX: 600000 instructions simulated : ctaid=(6,4,0) tid=(15,1,0)
GPGPU-Sim uArch: cycles simulated: 8000  inst.: 671840 (ipc=84.0) sim_rate=83980 (inst/sec) elapsed = 0:0:00:08 / Fri Mar  4 03:52:01 2016
GPGPU-Sim PTX: 700000 instructions simulated : ctaid=(14,0,0) tid=(15,1,0)
GPGPU-Sim uArch: cycles simulated: 8500  inst.: 760416 (ipc=89.5) sim_rate=84490 (inst/sec) elapsed = 0:0:00:09 / Fri Mar  4 03:52:02 2016
GPGPU-Sim PTX: 800000 instructions simulated : ctaid=(9,1,0) tid=(15,3,0)
GPGPU-Sim PTX: 900000 instructions simulated : ctaid=(4,1,0) tid=(15,1,0)
GPGPU-Sim uArch: cycles simulated: 9500  inst.: 966560 (ipc=101.7) sim_rate=96656 (inst/sec) elapsed = 0:0:00:10 / Fri Mar  4 03:52:03 2016
GPGPU-Sim PTX: 1000000 instructions simulated : ctaid=(14,1,0) tid=(15,3,0)
GPGPU-Sim PTX: 1100000 instructions simulated : ctaid=(11,0,0) tid=(15,5,0)
GPGPU-Sim PTX: 1200000 instructions simulated : ctaid=(6,4,0) tid=(15,3,0)
GPGPU-Sim uArch: cycles simulated: 10500  inst.: 1250848 (ipc=119.1) sim_rate=113713 (inst/sec) elapsed = 0:0:00:11 / Fri Mar  4 03:52:04 2016
GPGPU-Sim PTX: 1300000 instructions simulated : ctaid=(1,4,0) tid=(15,3,0)
GPGPU-Sim PTX: 1400000 instructions simulated : ctaid=(8,2,0) tid=(15,5,0)
GPGPU-Sim PTX: 1500000 instructions simulated : ctaid=(3,2,0) tid=(15,5,0)
GPGPU-Sim uArch: cycles simulated: 11000  inst.: 1529536 (ipc=139.0) sim_rate=127461 (inst/sec) elapsed = 0:0:00:12 / Fri Mar  4 03:52:05 2016
GPGPU-Sim PTX: 1600000 instructions simulated : ctaid=(4,2,0) tid=(15,1,0)
GPGPU-Sim PTX: 1700000 instructions simulated : ctaid=(5,0,0) tid=(15,5,0)
GPGPU-Sim PTX: 1800000 instructions simulated : ctaid=(8,1,0) tid=(15,3,0)
GPGPU-Sim PTX: 1900000 instructions simulated : ctaid=(15,0,0) tid=(15,5,0)
GPGPU-Sim PTX: 2000000 instructions simulated : ctaid=(10,1,0) tid=(15,5,0)
GPGPU-Sim PTX: 2100000 instructions simulated : ctaid=(1,0,0) tid=(15,5,0)
GPGPU-Sim PTX: 2200000 instructions simulated : ctaid=(3,1,0) tid=(15,7,0)
GPGPU-Sim uArch: cycles simulated: 12000  inst.: 2195520 (ipc=183.0) sim_rate=168886 (inst/sec) elapsed = 0:0:00:13 / Fri Mar  4 03:52:06 2016
GPGPU-Sim PTX: 2300000 instructions simulated : ctaid=(5,0,0) tid=(15,7,0)
GPGPU-Sim PTX: 2400000 instructions simulated : ctaid=(13,1,0) tid=(15,5,0)
GPGPU-Sim PTX: 2500000 instructions simulated : ctaid=(8,1,0) tid=(15,1,0)
GPGPU-Sim uArch: cycles simulated: 12500  inst.: 2525184 (ipc=202.0) sim_rate=180370 (inst/sec) elapsed = 0:0:00:14 / Fri Mar  4 03:52:07 2016
GPGPU-Sim PTX: 2600000 instructions simulated : ctaid=(14,0,0) tid=(15,1,0)
GPGPU-Sim PTX: 2700000 instructions simulated : ctaid=(2,0,0) tid=(15,5,0)
GPGPU-Sim PTX: 2800000 instructions simulated : ctaid=(10,2,0) tid=(15,5,0)
GPGPU-Sim PTX: 2900000 instructions simulated : ctaid=(3,4,0) tid=(15,1,0)
GPGPU-Sim uArch: cycles simulated: 13000  inst.: 2895520 (ipc=222.7) sim_rate=193034 (inst/sec) elapsed = 0:0:00:15 / Fri Mar  4 03:52:08 2016
GPGPU-Sim PTX: 3000000 instructions simulated : ctaid=(6,3,0) tid=(15,3,0)
GPGPU-Sim PTX: 3100000 instructions simulated : ctaid=(4,3,0) tid=(15,7,0)
GPGPU-Sim PTX: 3200000 instructions simulated : ctaid=(7,0,0) tid=(15,1,0)
GPGPU-Sim uArch: cycles simulated: 13500  inst.: 3190752 (ipc=236.4) sim_rate=199422 (inst/sec) elapsed = 0:0:00:16 / Fri Mar  4 03:52:09 2016
GPGPU-Sim PTX: 3300000 instructions simulated : ctaid=(13,3,0) tid=(15,3,0)
GPGPU-Sim PTX: 3400000 instructions simulated : ctaid=(7,4,0) tid=(15,5,0)
GPGPU-Sim uArch: cycles simulated: 14000  inst.: 3366912 (ipc=240.5) sim_rate=198053 (inst/sec) elapsed = 0:0:00:17 / Fri Mar  4 03:52:10 2016
GPGPU-Sim PTX: 3500000 instructions simulated : ctaid=(5,3,0) tid=(15,1,0)
GPGPU-Sim PTX: 3600000 instructions simulated : ctaid=(9,0,0) tid=(15,1,0)
GPGPU-Sim PTX: 3700000 instructions simulated : ctaid=(11,3,0) tid=(15,1,0)
GPGPU-Sim uArch: cycles simulated: 15000  inst.: 3664384 (ipc=244.3) sim_rate=203576 (inst/sec) elapsed = 0:0:00:18 / Fri Mar  4 03:52:11 2016
GPGPU-Sim PTX: 3800000 instructions simulated : ctaid=(10,0,0) tid=(15,5,0)
GPGPU-Sim PTX: 3900000 instructions simulated : ctaid=(13,1,0) tid=(15,7,0)
GPGPU-Sim uArch: cycles simulated: 15500  inst.: 3889024 (ipc=250.9) sim_rate=204685 (inst/sec) elapsed = 0:0:00:19 / Fri Mar  4 03:52:12 2016
GPGPU-Sim PTX: 4000000 instructions simulated : ctaid=(5,3,0) tid=(15,3,0)
GPGPU-Sim PTX: 4100000 instructions simulated : ctaid=(5,2,0) tid=(15,3,0)
GPGPU-Sim PTX: 4200000 instructions simulated : ctaid=(11,1,0) tid=(15,1,0)
GPGPU-Sim uArch: cycles simulated: 16500  inst.: 4111072 (ipc=249.2) sim_rate=205553 (inst/sec) elapsed = 0:0:00:20 / Fri Mar  4 03:52:13 2016
GPGPU-Sim PTX: 4300000 instructions simulated : ctaid=(11,2,0) tid=(15,7,0)
GPGPU-Sim PTX: 4400000 instructions simulated : ctaid=(11,3,0) tid=(15,5,0)
GPGPU-Sim PTX: 4500000 instructions simulated : ctaid=(10,4,0) tid=(15,5,0)
GPGPU-Sim PTX: 4600000 instructions simulated : ctaid=(3,2,0) tid=(11,2,0)
GPGPU-Sim PTX: 4700000 instructions simulated : ctaid=(3,0,0) tid=(10,0,0)
GPGPU-Sim uArch: cycles simulated: 17500  inst.: 4586784 (ipc=262.1) sim_rate=218418 (inst/sec) elapsed = 0:0:00:21 / Fri Mar  4 03:52:14 2016
GPGPU-Sim PTX: 4800000 instructions simulated : ctaid=(13,1,0) tid=(15,2,0)
GPGPU-Sim PTX: 4900000 instructions simulated : ctaid=(5,0,0) tid=(15,4,0)
GPGPU-Sim PTX: 5000000 instructions simulated : ctaid=(0,3,0) tid=(15,2,0)
GPGPU-Sim PTX: 5100000 instructions simulated : ctaid=(0,1,0) tid=(15,6,0)
GPGPU-Sim uArch: cycles simulated: 18000  inst.: 4982352 (ipc=276.8) sim_rate=226470 (inst/sec) elapsed = 0:0:00:22 / Fri Mar  4 03:52:15 2016
GPGPU-Sim PTX: 5200000 instructions simulated : ctaid=(11,0,0) tid=(15,2,0)
GPGPU-Sim PTX: 5300000 instructions simulated : ctaid=(5,2,0) tid=(15,4,0)
GPGPU-Sim PTX: 5400000 instructions simulated : ctaid=(13,1,0) tid=(15,4,0)
GPGPU-Sim PTX: 5500000 instructions simulated : ctaid=(5,1,0) tid=(6,5,0)
GPGPU-Sim uArch: cycles simulated: 18500  inst.: 5380548 (ipc=290.8) sim_rate=233936 (inst/sec) elapsed = 0:0:00:23 / Fri Mar  4 03:52:16 2016
GPGPU-Sim PTX: 5600000 instructions simulated : ctaid=(1,2,0) tid=(1,7,0)
GPGPU-Sim PTX: 5700000 instructions simulated : ctaid=(8,2,0) tid=(12,2,0)
GPGPU-Sim PTX: 5800000 instructions simulated : ctaid=(8,4,0) tid=(15,0,0)
GPGPU-Sim uArch: cycles simulated: 19000  inst.: 5706596 (ipc=300.3) sim_rate=237774 (inst/sec) elapsed = 0:0:00:24 / Fri Mar  4 03:52:17 2016
GPGPU-Sim PTX: 5900000 instructions simulated : ctaid=(8,4,0) tid=(5,1,0)
GPGPU-Sim PTX: 6000000 instructions simulated : ctaid=(15,3,0) tid=(15,2,0)
GPGPU-Sim PTX: 6100000 instructions simulated : ctaid=(1,3,0) tid=(11,3,0)
GPGPU-Sim uArch: cycles simulated: 19500  inst.: 5919844 (ipc=303.6) sim_rate=236793 (inst/sec) elapsed = 0:0:00:25 / Fri Mar  4 03:52:18 2016
GPGPU-Sim PTX: 6200000 instructions simulated : ctaid=(0,2,0) tid=(11,3,0)
GPGPU-Sim PTX: 6300000 instructions simulated : ctaid=(11,0,0) tid=(11,5,0)
GPGPU-Sim PTX: 6400000 instructions simulated : ctaid=(11,2,0) tid=(11,1,0)
GPGPU-Sim uArch: cycles simulated: 21000  inst.: 6240100 (ipc=297.1) sim_rate=240003 (inst/sec) elapsed = 0:0:00:26 / Fri Mar  4 03:52:19 2016
GPGPU-Sim PTX: 6500000 instructions simulated : ctaid=(4,1,0) tid=(3,5,0)
GPGPU-Sim PTX: 6600000 instructions simulated : ctaid=(14,0,0) tid=(11,5,0)
GPGPU-Sim PTX: 6700000 instructions simulated : ctaid=(0,2,0) tid=(11,1,0)
GPGPU-Sim uArch: cycles simulated: 22000  inst.: 6524356 (ipc=296.6) sim_rate=241642 (inst/sec) elapsed = 0:0:00:27 / Fri Mar  4 03:52:20 2016
GPGPU-Sim PTX: 6800000 instructions simulated : ctaid=(4,3,0) tid=(11,5,0)
GPGPU-Sim PTX: 6900000 instructions simulated : ctaid=(15,2,0) tid=(11,1,0)
GPGPU-Sim uArch: cycles simulated: 22500  inst.: 6755012 (ipc=300.2) sim_rate=241250 (inst/sec) elapsed = 0:0:00:28 / Fri Mar  4 03:52:21 2016
GPGPU-Sim PTX: 7000000 instructions simulated : ctaid=(3,4,0) tid=(11,1,0)
GPGPU-Sim PTX: 7100000 instructions simulated : ctaid=(1,3,0) tid=(11,1,0)
GPGPU-Sim PTX: 7200000 instructions simulated : ctaid=(9,3,0) tid=(11,3,0)
GPGPU-Sim uArch: cycles simulated: 23500  inst.: 7079460 (ipc=301.3) sim_rate=244119 (inst/sec) elapsed = 0:0:00:29 / Fri Mar  4 03:52:22 2016
GPGPU-Sim PTX: 7300000 instructions simulated : ctaid=(4,2,0) tid=(11,5,0)
GPGPU-Sim PTX: 7400000 instructions simulated : ctaid=(5,1,0) tid=(11,3,0)
GPGPU-Sim PTX: 7500000 instructions simulated : ctaid=(4,3,0) tid=(11,7,0)
GPGPU-Sim PTX: 7600000 instructions simulated : ctaid=(9,2,0) tid=(11,1,0)
GPGPU-Sim uArch: cycles simulated: 24500  inst.: 7444356 (ipc=303.9) sim_rate=248145 (inst/sec) elapsed = 0:0:00:30 / Fri Mar  4 03:52:23 2016
GPGPU-Sim PTX: 7700000 instructions simulated : ctaid=(0,0,0) tid=(11,1,0)
GPGPU-Sim PTX: 7800000 instructions simulated : ctaid=(1,2,0) tid=(11,7,0)
GPGPU-Sim uArch: cycles simulated: 25000  inst.: 7619204 (ipc=304.8) sim_rate=245780 (inst/sec) elapsed = 0:0:00:31 / Fri Mar  4 03:52:24 2016
GPGPU-Sim PTX: 7900000 instructions simulated : ctaid=(7,3,0) tid=(11,7,0)
GPGPU-Sim PTX: 8000000 instructions simulated : ctaid=(5,1,0) tid=(11,7,0)
GPGPU-Sim PTX: 8100000 instructions simulated : ctaid=(4,1,0) tid=(11,3,0)
GPGPU-Sim uArch: cycles simulated: 26000  inst.: 7970436 (ipc=306.6) sim_rate=249076 (inst/sec) elapsed = 0:0:00:32 / Fri Mar  4 03:52:25 2016
GPGPU-Sim PTX: 8200000 instructions simulated : ctaid=(1,1,0) tid=(11,3,0)
GPGPU-Sim PTX: 8300000 instructions simulated : ctaid=(12,2,0) tid=(11,5,0)
GPGPU-Sim PTX: 8400000 instructions simulated : ctaid=(7,2,0) tid=(11,1,0)
GPGPU-Sim PTX: 8500000 instructions simulated : ctaid=(13,3,0) tid=(11,3,0)
GPGPU-Sim PTX: 8600000 instructions simulated : ctaid=(14,0,0) tid=(10,2,0)
GPGPU-Sim PTX: 8700000 instructions simulated : ctaid=(7,3,0) tid=(11,6,0)
GPGPU-Sim uArch: cycles simulated: 27000  inst.: 8549687 (ipc=316.7) sim_rate=259081 (inst/sec) elapsed = 0:0:00:33 / Fri Mar  4 03:52:26 2016
GPGPU-Sim PTX: 8800000 instructions simulated : ctaid=(11,2,0) tid=(1,3,0)
GPGPU-Sim PTX: 8900000 instructions simulated : ctaid=(0,1,0) tid=(11,3,0)
GPGPU-Sim PTX: 9000000 instructions simulated : ctaid=(1,3,0) tid=(8,4,0)
GPGPU-Sim PTX: 9100000 instructions simulated : ctaid=(9,2,0) tid=(8,6,0)
GPGPU-Sim uArch: cycles simulated: 27500  inst.: 8951415 (ipc=325.5) sim_rate=263276 (inst/sec) elapsed = 0:0:00:34 / Fri Mar  4 03:52:27 2016
GPGPU-Sim PTX: 9200000 instructions simulated : ctaid=(2,0,0) tid=(9,2,0)
GPGPU-Sim PTX: 9300000 instructions simulated : ctaid=(4,3,0) tid=(3,1,0)
GPGPU-Sim PTX: 9400000 instructions simulated : ctaid=(14,1,0) tid=(15,4,0)
GPGPU-Sim PTX: 9500000 instructions simulated : ctaid=(15,0,0) tid=(15,6,0)
GPGPU-Sim uArch: cycles simulated: 28000  inst.: 9352594 (ipc=334.0) sim_rate=267216 (inst/sec) elapsed = 0:0:00:35 / Fri Mar  4 03:52:28 2016
GPGPU-Sim PTX: 9600000 instructions simulated : ctaid=(4,3,0) tid=(3,4,0)
GPGPU-Sim PTX: 9700000 instructions simulated : ctaid=(5,0,0) tid=(8,2,0)
GPGPU-Sim PTX: 9800000 instructions simulated : ctaid=(15,1,0) tid=(4,3,0)
GPGPU-Sim PTX: 9900000 instructions simulated : ctaid=(9,1,0) tid=(7,6,0)
GPGPU-Sim uArch: cycles simulated: 28500  inst.: 9687684 (ipc=339.9) sim_rate=269102 (inst/sec) elapsed = 0:0:00:36 / Fri Mar  4 03:52:29 2016
GPGPU-Sim PTX: 10000000 instructions simulated : ctaid=(2,4,0) tid=(3,7,0)
GPGPU-Sim PTX: 10100000 instructions simulated : ctaid=(5,2,0) tid=(7,4,0)
GPGPU-Sim uArch: cycles simulated: 29000  inst.: 9835704 (ipc=339.2) sim_rate=265829 (inst/sec) elapsed = 0:0:00:37 / Fri Mar  4 03:52:30 2016
GPGPU-Sim PTX: 10200000 instructions simulated : ctaid=(9,1,0) tid=(4,4,0)
GPGPU-Sim PTX: 10300000 instructions simulated : ctaid=(10,3,0) tid=(14,4,0)
GPGPU-Sim uArch: cycles simulated: 30000  inst.: 10073928 (ipc=335.8) sim_rate=265103 (inst/sec) elapsed = 0:0:00:38 / Fri Mar  4 03:52:31 2016
GPGPU-Sim uArch: Shader 2 finished CTA #1 (30142,0), 4 CTAs running
GPGPU-Sim uArch: core:  2, cta: 1 initialized @(30143,0)
GPGPU-Sim PTX: 10400000 instructions simulated : ctaid=(2,2,0) tid=(9,2,0)
GPGPU-Sim uArch: Shader 0 finished CTA #0 (30194,0), 4 CTAs running
GPGPU-Sim uArch: core:  0, cta: 0 initialized @(30195,0)
GPGPU-Sim uArch: Shader 2 finished CTA #0 (30196,0), 4 CTAs running
GPGPU-Sim uArch: core:  2, cta: 0 initialized @(30197,0)
GPGPU-Sim uArch: Shader 0 finished CTA #1 (30206,0), 4 CTAs running
GPGPU-Sim uArch: core:  0, cta: 1 initialized @(30207,0)
GPGPU-Sim uArch: Shader 2 finished CTA #2 (30228,0), 4 CTAs running
GPGPU-Sim uArch: core:  2, cta: 2 initialized @(30229,0)
GPGPU-Sim uArch: Shader 0 finished CTA #2 (30240,0), 4 CTAs running
GPGPU-Sim uArch: core:  0, cta: 2 initialized @(30241,0)
GPGPU-Sim uArch: Shader 2 finished CTA #3 (30248,0), 4 CTAs running
GPGPU-Sim uArch: core:  2, cta: 3 initialized @(30249,0)
GPGPU-Sim uArch: Shader 2 finished CTA #4 (30266,0), 4 CTAs running
GPGPU-Sim uArch: core:  2, cta: 4 initialized @(30267,0)
GPGPU-Sim uArch: Shader 8 finished CTA #4 (30271,0), 4 CTAs running
GPGPU-Sim uArch: core:  8, cta: 4 initialized @(30272,0)
GPGPU-Sim uArch: Shader 8 finished CTA #2 (30276,0), 4 CTAs running
GPGPU-Sim uArch: Shader 14 finished CTA #0 (30276,0), 4 CTAs running
GPGPU-Sim uArch: core: 14, cta: 0 initialized @(30277,0)
GPGPU-Sim uArch: core:  8, cta: 2 initialized @(30277,0)
GPGPU-Sim uArch: Shader 0 finished CTA #3 (30277,0), 4 CTAs running
GPGPU-Sim uArch: core:  0, cta: 3 initialized @(30278,0)
GPGPU-Sim uArch: Shader 4 finished CTA #1 (30282,0), 4 CTAs running
GPGPU-Sim uArch: core:  4, cta: 1 initialized @(30283,0)
GPGPU-Sim uArch: Shader 8 finished CTA #3 (30287,0), 4 CTAs running
GPGPU-Sim uArch: core:  8, cta: 3 initialized @(30288,0)
GPGPU-Sim uArch: Shader 3 finished CTA #0 (30297,0), 4 CTAs running
GPGPU-Sim uArch: core:  3, cta: 0 initialized @(30298,0)
GPGPU-Sim uArch: Shader 9 finished CTA #3 (30318,0), 4 CTAs running
GPGPU-Sim uArch: core:  9, cta: 3 initialized @(30319,0)
GPGPU-Sim uArch: Shader 3 finished CTA #1 (30327,0), 4 CTAs running
GPGPU-Sim uArch: Shader 4 finished CTA #2 (30327,0), 4 CTAs running
GPGPU-Sim uArch: core:  3, cta: 1 initialized @(30328,0)
GPGPU-Sim uArch: core:  4, cta: 2 initialized @(30328,0)
GPGPU-Sim uArch: Shader 1 finished CTA #0 (30355,0), 4 CTAs running
GPGPU-Sim uArch: Shader 9 finished CTA #4 (30355,0), 4 CTAs running
GPGPU-Sim uArch: core:  9, cta: 4 initialized @(30356,0)
GPGPU-Sim uArch: core:  1, cta: 0 initialized @(30356,0)
GPGPU-Sim uArch: Shader 0 finished CTA #4 (30357,0), 4 CTAs running
GPGPU-Sim uArch: core:  0, cta: 4 initialized @(30358,0)
GPGPU-Sim uArch: Shader 1 finished CTA #1 (30360,0), 4 CTAs running
GPGPU-Sim uArch: core:  1, cta: 1 initialized @(30361,0)
GPGPU-Sim uArch: Shader 1 finished CTA #2 (30367,0), 4 CTAs running
GPGPU-Sim uArch: core:  1, cta: 2 initialized @(30368,0)
GPGPU-Sim uArch: Shader 3 finished CTA #4 (30371,0), 4 CTAs running
GPGPU-Sim uArch: core:  3, cta: 4 initialized @(30372,0)
GPGPU-Sim uArch: Shader 4 finished CTA #3 (30387,0), 4 CTAs running
GPGPU-Sim uArch: core:  4, cta: 3 initialized @(30388,0)
GPGPU-Sim uArch: Shader 3 finished CTA #2 (30393,0), 4 CTAs running
GPGPU-Sim uArch: core:  3, cta: 2 initialized @(30394,0)
GPGPU-Sim uArch: Shader 4 finished CTA #4 (30395,0), 4 CTAs running
GPGPU-Sim uArch: core:  4, cta: 4 initialized @(30396,0)
GPGPU-Sim uArch: Shader 6 finished CTA #2 (30398,0), 4 CTAs running
GPGPU-Sim uArch: core:  6, cta: 2 initialized @(30399,0)
GPGPU-Sim uArch: Shader 6 finished CTA #3 (30425,0), 4 CTAs running
GPGPU-Sim uArch: core:  6, cta: 3 initialized @(30426,0)
GPGPU-Sim uArch: Shader 7 finished CTA #4 (30430,0), 4 CTAs running
GPGPU-Sim uArch: core:  7, cta: 4 initialized @(30431,0)
GPGPU-Sim uArch: Shader 6 finished CTA #4 (30433,0), 4 CTAs running
GPGPU-Sim uArch: core:  6, cta: 4 initialized @(30434,0)
GPGPU-Sim uArch: Shader 5 finished CTA #2 (30441,0), 4 CTAs running
GPGPU-Sim uArch: core:  5, cta: 2 initialized @(30442,0)
GPGPU-Sim uArch: Shader 5 finished CTA #3 (30449,0), 4 CTAs running
GPGPU-Sim uArch: core:  5, cta: 3 initialized @(30450,0)
GPGPU-Sim uArch: Shader 5 finished CTA #4 (30458,0), 4 CTAs running
GPGPU-Sim uArch: core:  5, cta: 4 initialized @(30459,0)
GPGPU-Sim uArch: Shader 1 finished CTA #4 (30467,0), 4 CTAs running
GPGPU-Sim uArch: core:  1, cta: 4 initialized @(30468,0)
GPGPU-Sim uArch: cycles simulated: 30500  inst.: 10226318 (ipc=335.3) sim_rate=262213 (inst/sec) elapsed = 0:0:00:39 / Fri Mar  4 03:52:32 2016
GPGPU-Sim PTX: 10500000 instructions simulated : ctaid=(6,4,0) tid=(13,5,0)
GPGPU-Sim uArch: Shader 3 finished CTA #3 (30517,0), 4 CTAs running
GPGPU-Sim uArch: core:  3, cta: 3 initialized @(30518,0)
GPGPU-Sim uArch: Shader 1 finished CTA #3 (30541,0), 4 CTAs running
GPGPU-Sim uArch: core:  1, cta: 3 initialized @(30542,0)
GPGPU-Sim uArch: Shader 7 finished CTA #3 (30613,0), 4 CTAs running
GPGPU-Sim uArch: core:  7, cta: 3 initialized @(30614,0)
GPGPU-Sim uArch: Shader 10 finished CTA #4 (30773,0), 4 CTAs running
GPGPU-Sim uArch: core: 10, cta: 4 initialized @(30774,0)
GPGPU-Sim PTX: 10600000 instructions simulated : ctaid=(0,7,0) tid=(4,7,0)
GPGPU-Sim uArch: cycles simulated: 31000  inst.: 10374332 (ipc=334.7) sim_rate=259358 (inst/sec) elapsed = 0:0:00:40 / Fri Mar  4 03:52:33 2016
GPGPU-Sim PTX: 10700000 instructions simulated : ctaid=(9,5,0) tid=(7,4,0)
GPGPU-Sim PTX: 10800000 instructions simulated : ctaid=(3,0,0) tid=(15,3,0)
GPGPU-Sim uArch: cycles simulated: 31500  inst.: 10527074 (ipc=334.2) sim_rate=256757 (inst/sec) elapsed = 0:0:00:41 / Fri Mar  4 03:52:34 2016
GPGPU-Sim PTX: 10900000 instructions simulated : ctaid=(13,5,0) tid=(1,2,0)
GPGPU-Sim PTX: 11000000 instructions simulated : ctaid=(10,5,0) tid=(15,0,0)
GPGPU-Sim uArch: cycles simulated: 32000  inst.: 10725741 (ipc=335.2) sim_rate=255374 (inst/sec) elapsed = 0:0:00:42 / Fri Mar  4 03:52:35 2016
GPGPU-Sim PTX: 11100000 instructions simulated : ctaid=(9,1,0) tid=(13,5,0)
GPGPU-Sim PTX: 11200000 instructions simulated : ctaid=(13,6,0) tid=(9,5,0)
GPGPU-Sim uArch: cycles simulated: 32500  inst.: 10954047 (ipc=337.0) sim_rate=254745 (inst/sec) elapsed = 0:0:00:43 / Fri Mar  4 03:52:36 2016
GPGPU-Sim PTX: 11300000 instructions simulated : ctaid=(7,6,0) tid=(3,0,0)
GPGPU-Sim PTX: 11400000 instructions simulated : ctaid=(13,5,0) tid=(0,0,0)
GPGPU-Sim PTX: 11500000 instructions simulated : ctaid=(8,3,0) tid=(2,6,0)
GPGPU-Sim uArch: cycles simulated: 33000  inst.: 11215255 (ipc=339.9) sim_rate=254892 (inst/sec) elapsed = 0:0:00:44 / Fri Mar  4 03:52:37 2016
GPGPU-Sim PTX: 11600000 instructions simulated : ctaid=(4,0,0) tid=(11,3,0)
GPGPU-Sim PTX: 11700000 instructions simulated : ctaid=(15,5,0) tid=(13,0,0)
GPGPU-Sim uArch: cycles simulated: 33500  inst.: 11490742 (ipc=343.0) sim_rate=255349 (inst/sec) elapsed = 0:0:00:45 / Fri Mar  4 03:52:38 2016
GPGPU-Sim PTX: 11800000 instructions simulated : ctaid=(9,6,0) tid=(0,7,0)
GPGPU-Sim PTX: 11900000 instructions simulated : ctaid=(12,5,0) tid=(4,0,0)
GPGPU-Sim PTX: 12000000 instructions simulated : ctaid=(1,5,0) tid=(8,6,0)
GPGPU-Sim PTX: 12100000 instructions simulated : ctaid=(6,6,0) tid=(3,4,0)
GPGPU-Sim uArch: cycles simulated: 34000  inst.: 11788823 (ipc=346.7) sim_rate=256278 (inst/sec) elapsed = 0:0:00:46 / Fri Mar  4 03:52:39 2016
GPGPU-Sim PTX: 12200000 instructions simulated : ctaid=(13,4,0) tid=(12,0,0)
GPGPU-Sim PTX: 12300000 instructions simulated : ctaid=(14,5,0) tid=(12,6,0)
GPGPU-Sim PTX: 12400000 instructions simulated : ctaid=(6,5,0) tid=(15,2,0)
GPGPU-Sim uArch: Shader 7 finished CTA #2 (34490,0), 4 CTAs running
GPGPU-Sim uArch: core:  7, cta: 2 initialized @(34491,0)
GPGPU-Sim uArch: cycles simulated: 34500  inst.: 12102926 (ipc=350.8) sim_rate=257509 (inst/sec) elapsed = 0:0:00:47 / Fri Mar  4 03:52:40 2016
GPGPU-Sim PTX: 12500000 instructions simulated : ctaid=(4,0,0) tid=(7,7,0)
GPGPU-Sim PTX: 12600000 instructions simulated : ctaid=(3,5,0) tid=(0,2,0)
GPGPU-Sim PTX: 12700000 instructions simulated : ctaid=(3,5,0) tid=(6,6,0)
GPGPU-Sim uArch: cycles simulated: 35000  inst.: 12403755 (ipc=354.4) sim_rate=258411 (inst/sec) elapsed = 0:0:00:48 / Fri Mar  4 03:52:41 2016
GPGPU-Sim PTX: 12800000 instructions simulated : ctaid=(14,4,0) tid=(10,7,0)
GPGPU-Sim PTX: 12900000 instructions simulated : ctaid=(1,5,0) tid=(9,0,0)
GPGPU-Sim uArch: Shader 14 finished CTA #2 (35375,0), 4 CTAs running
GPGPU-Sim uArch: core: 14, cta: 2 initialized @(35376,0)
GPGPU-Sim PTX: 13000000 instructions simulated : ctaid=(6,6,0) tid=(6,3,0)
GPGPU-Sim uArch: cycles simulated: 35500  inst.: 12691822 (ipc=357.5) sim_rate=259016 (inst/sec) elapsed = 0:0:00:49 / Fri Mar  4 03:52:42 2016
GPGPU-Sim PTX: 13100000 instructions simulated : ctaid=(2,7,0) tid=(7,3,0)
GPGPU-Sim PTX: 13200000 instructions simulated : ctaid=(2,5,0) tid=(6,1,0)
GPGPU-Sim PTX: 13300000 instructions simulated : ctaid=(3,6,0) tid=(3,6,0)
GPGPU-Sim uArch: cycles simulated: 36000  inst.: 12959764 (ipc=360.0) sim_rate=259195 (inst/sec) elapsed = 0:0:00:50 / Fri Mar  4 03:52:43 2016
GPGPU-Sim PTX: 13400000 instructions simulated : ctaid=(9,2,0) tid=(5,2,0)
GPGPU-Sim PTX: 13500000 instructions simulated : ctaid=(2,5,0) tid=(6,0,0)
GPGPU-Sim uArch: cycles simulated: 36500  inst.: 13229171 (ipc=362.4) sim_rate=259395 (inst/sec) elapsed = 0:0:00:51 / Fri Mar  4 03:52:44 2016
GPGPU-Sim PTX: 13600000 instructions simulated : ctaid=(1,5,0) tid=(8,6,0)
GPGPU-Sim PTX: 13700000 instructions simulated : ctaid=(2,5,0) tid=(13,4,0)
GPGPU-Sim PTX: 13800000 instructions simulated : ctaid=(8,5,0) tid=(6,0,0)
GPGPU-Sim uArch: cycles simulated: 37000  inst.: 13499122 (ipc=364.8) sim_rate=259598 (inst/sec) elapsed = 0:0:00:52 / Fri Mar  4 03:52:45 2016
GPGPU-Sim PTX: 13900000 instructions simulated : ctaid=(4,1,0) tid=(13,2,0)
GPGPU-Sim PTX: 14000000 instructions simulated : ctaid=(0,5,0) tid=(4,4,0)
GPGPU-Sim PTX: 14100000 instructions simulated : ctaid=(10,5,0) tid=(3,2,0)
GPGPU-Sim uArch: cycles simulated: 37500  inst.: 13777276 (ipc=367.4) sim_rate=259948 (inst/sec) elapsed = 0:0:00:53 / Fri Mar  4 03:52:46 2016
GPGPU-Sim PTX: 14200000 instructions simulated : ctaid=(12,5,0) tid=(5,7,0)
GPGPU-Sim PTX: 14300000 instructions simulated : ctaid=(9,1,0) tid=(3,0,0)
GPGPU-Sim PTX: 14400000 instructions simulated : ctaid=(7,6,0) tid=(3,2,0)
GPGPU-Sim uArch: cycles simulated: 38000  inst.: 14074048 (ipc=370.4) sim_rate=260630 (inst/sec) elapsed = 0:0:00:54 / Fri Mar  4 03:52:47 2016
GPGPU-Sim PTX: 14500000 instructions simulated : ctaid=(7,2,0) tid=(2,2,0)
GPGPU-Sim PTX: 14600000 instructions simulated : ctaid=(12,4,0) tid=(8,6,0)
GPGPU-Sim PTX: 14700000 instructions simulated : ctaid=(15,4,0) tid=(8,5,0)
GPGPU-Sim PTX: 14800000 instructions simulated : ctaid=(4,0,0) tid=(7,5,0)
GPGPU-Sim PTX: 14900000 instructions simulated : ctaid=(8,5,0) tid=(2,3,0)
GPGPU-Sim PTX: 15000000 instructions simulated : ctaid=(6,0,0) tid=(8,1,0)
GPGPU-Sim uArch: cycles simulated: 39000  inst.: 14680860 (ipc=376.4) sim_rate=266924 (inst/sec) elapsed = 0:0:00:55 / Fri Mar  4 03:52:48 2016
GPGPU-Sim PTX: 15100000 instructions simulated : ctaid=(5,6,0) tid=(7,1,0)
GPGPU-Sim PTX: 15200000 instructions simulated : ctaid=(14,5,0) tid=(11,1,0)
GPGPU-Sim PTX: 15300000 instructions simulated : ctaid=(9,5,0) tid=(8,5,0)
GPGPU-Sim uArch: cycles simulated: 39500  inst.: 14965976 (ipc=378.9) sim_rate=267249 (inst/sec) elapsed = 0:0:00:56 / Fri Mar  4 03:52:49 2016
GPGPU-Sim PTX: 15400000 instructions simulated : ctaid=(8,2,0) tid=(8,3,0)
GPGPU-Sim PTX: 15500000 instructions simulated : ctaid=(8,4,0) tid=(4,0,0)
GPGPU-Sim uArch: Shader 14 finished CTA #3 (39886,0), 4 CTAs running
GPGPU-Sim uArch: core: 14, cta: 3 initialized @(39887,0)
GPGPU-Sim PTX: 15600000 instructions simulated : ctaid=(2,5,0) tid=(5,1,0)
GPGPU-Sim uArch: cycles simulated: 40000  inst.: 15216836 (ipc=380.4) sim_rate=266962 (inst/sec) elapsed = 0:0:00:57 / Fri Mar  4 03:52:50 2016
GPGPU-Sim PTX: 15700000 instructions simulated : ctaid=(9,3,0) tid=(2,4,0)
GPGPU-Sim PTX: 15800000 instructions simulated : ctaid=(2,5,0) tid=(8,1,0)
GPGPU-Sim uArch: cycles simulated: 40500  inst.: 15422543 (ipc=380.8) sim_rate=265905 (inst/sec) elapsed = 0:0:00:58 / Fri Mar  4 03:52:51 2016
GPGPU-Sim PTX: 15900000 instructions simulated : ctaid=(10,6,0) tid=(1,7,0)
GPGPU-Sim PTX: 16000000 instructions simulated : ctaid=(12,0,0) tid=(7,1,0)
GPGPU-Sim uArch: cycles simulated: 41000  inst.: 15618105 (ipc=380.9) sim_rate=264713 (inst/sec) elapsed = 0:0:00:59 / Fri Mar  4 03:52:52 2016
GPGPU-Sim PTX: 16100000 instructions simulated : ctaid=(11,4,0) tid=(2,6,0)
GPGPU-Sim PTX: 16200000 instructions simulated : ctaid=(2,6,0) tid=(12,7,0)
GPGPU-Sim uArch: cycles simulated: 41500  inst.: 15842615 (ipc=381.7) sim_rate=264043 (inst/sec) elapsed = 0:0:01:00 / Fri Mar  4 03:52:53 2016
GPGPU-Sim PTX: 16300000 instructions simulated : ctaid=(10,0,0) tid=(6,2,0)
GPGPU-Sim PTX: 16400000 instructions simulated : ctaid=(7,2,0) tid=(12,4,0)
GPGPU-Sim uArch: Shader 13 finished CTA #2 (41843,0), 4 CTAs running
GPGPU-Sim uArch: core: 13, cta: 2 initialized @(41844,0)
GPGPU-Sim PTX: 16500000 instructions simulated : ctaid=(2,5,0) tid=(4,4,0)
GPGPU-Sim uArch: cycles simulated: 42000  inst.: 16069895 (ipc=382.6) sim_rate=263440 (inst/sec) elapsed = 0:0:01:01 / Fri Mar  4 03:52:54 2016
GPGPU-Sim PTX: 16600000 instructions simulated : ctaid=(15,6,0) tid=(11,7,0)
GPGPU-Sim PTX: 16700000 instructions simulated : ctaid=(4,5,0) tid=(2,5,0)
GPGPU-Sim PTX: 16800000 instructions simulated : ctaid=(11,1,0) tid=(4,5,0)
GPGPU-Sim PTX: 16900000 instructions simulated : ctaid=(12,5,0) tid=(12,7,0)
GPGPU-Sim uArch: cycles simulated: 43000  inst.: 16519358 (ipc=384.2) sim_rate=266441 (inst/sec) elapsed = 0:0:01:02 / Fri Mar  4 03:52:55 2016
GPGPU-Sim PTX: 17000000 instructions simulated : ctaid=(12,5,0) tid=(4,5,0)
GPGPU-Sim PTX: 17100000 instructions simulated : ctaid=(4,5,0) tid=(0,3,0)
GPGPU-Sim PTX: 17200000 instructions simulated : ctaid=(10,6,0) tid=(1,2,0)
GPGPU-Sim uArch: cycles simulated: 43500  inst.: 16773274 (ipc=385.6) sim_rate=266242 (inst/sec) elapsed = 0:0:01:03 / Fri Mar  4 03:52:56 2016
GPGPU-Sim PTX: 17300000 instructions simulated : ctaid=(4,0,0) tid=(13,4,0)
GPGPU-Sim PTX: 17400000 instructions simulated : ctaid=(15,6,0) tid=(0,4,0)
GPGPU-Sim uArch: Shader 5 finished CTA #1 (43840,0), 4 CTAs running
GPGPU-Sim uArch: core:  5, cta: 1 initialized @(43841,0)
GPGPU-Sim uArch: cycles simulated: 44000  inst.: 17018237 (ipc=386.8) sim_rate=265909 (inst/sec) elapsed = 0:0:01:04 / Fri Mar  4 03:52:57 2016
[...]
traffic_breakdown_memtocore[LOCAL_ACC_W] = 355904 {8:44488,}
maxmrqlatency = 773 
maxdqlatency = 0 
maxmflatency = 2230 
averagemflatency = 275 
max_icnt2mem_latency = 1225 
max_icnt2sh_latency = 146556 
mrq_lat_table:12689 	1437 	1034 	1643 	4327 	3897 	3532 	2732 	583 	19 	0 	0 	0 	0 	0 	0 	0 	0 	0 	0 	0 	0 	0 	0 	0 	0 	0 	0 	0 	0 	0 	0 	
dq_lat_table:0 	0 	0 	0 	0 	0 	0 	0 	0 	0 	0 	0 	0 	0 	0 	0 	0 	0 	0 	0 	0 	0 	0 	0 	0 	0 	0 	0 	0 	0 	0 	0 	
mf_lat_table:0 	0 	0 	0 	0 	0 	0 	49002 	8877 	4243 	1704 	10 	0 	0 	0 	0 	0 	0 	0 	0 	0 	0 	0 	0 	0 	0 	0 	0 	0 	0 	0 	0 	
icnt2mem_lat_table:0 	0 	0 	20590 	12757 	13282 	29632 	2074 	2528 	843 	10 	0 	0 	0 	0 	0 	0 	0 	0 	0 	0 	0 	0 	0 	
icnt2sh_lat_table:0 	0 	0 	4993 	4210 	1748 	205 	0 	0 	140 	390 	1148 	2559 	3563 	5122 	10604 	23026 	6128 	0 	0 	0 	0 	0 	0 	
mf_lat_pw_table:0 	0 	0 	0 	0 	0 	0 	235 	11 	18 	4 	0 	0 	0 	0 	0 	0 	0 	0 	0 	0 	0 	0 	0 	0 	0 	0 	0 	0 	0 	0 	0 	
maximum concurrent accesses to same row:
dram[0]:        46        56        36        34        24        24        41        26        39        22        13        15        16        23        16        20 
dram[1]:        52        54        34        32        20        22        32        38        24        24        20        20        25        26        18        20 
dram[2]:        62        62        60        56        30        32        30        37        26        28        16        17        25        21        18        22 
dram[3]:        60        62        62        60        30        28        44        41        30        22        23        26        22        32        24        18 
dram[4]:        62        64        60        62        32        30        36        24        24        20        18        27        21        18        34        22 
dram[5]:        62        62        62        56        32        30        24        38        25        24        26        32        16        27        20        20 
maximum service time to same row:
dram[0]:     23311     22574     16826     18435     17725     15066     18698     16980     19524     18976     20258     31772     22950     23629     25506     20057 
dram[1]:     12459     38759     16762     18143     16575     16370     15110     18439     19137     18687     35892     51206     47425     30022     36949     24102 
dram[2]:     13255     32187     16921     23819     16709     18483     18687     18478     21528     19019     20309     20189     24091     30272     26556     34580 
dram[3]:     11180     17266     33087     17499     17837     16115     15808     16481     20165     18328     19596     26065     23395     29480     19544     23796 
dram[4]:     21704     15776     20384     29122     21006     28475     28278     18517     19190     20865     19540     19369     30028     29120     35272     23168 
dram[5]:     11818     20151     17363     29128     16552     14679     16006     20619     18808     22035     21426     29279     29175     28475     35191     24494 
average row accesses per activate:
dram[0]:  5.119403  6.282609  5.166667  4.768116  4.034091  3.009434  4.389610  3.695652  3.676190  3.071429  3.804598  3.234783  3.761905  4.328948  4.733333  4.187500 
dram[1]:  4.445783  6.731707  4.441176  4.650794  3.181818  4.089552  3.529412  3.533981  3.303704  3.976744  3.405941  4.848485  3.398374  4.746032  3.935065  4.366197 
dram[2]:  5.909091  6.613636  5.938776  5.843137  3.478261  3.691489  3.428571  4.410256  3.762376  3.989796  3.472222  3.463158  4.689189  4.258427  3.947368  4.966102 
dram[3]:  5.892857  6.055555  9.185185  7.463415  3.654321  3.071429  3.784091  3.946237  4.788733  3.482759  3.750000  3.527472  4.925373  4.235955  4.706897  3.721519 
dram[4]:  6.285714  6.477273  6.850000  8.085714  4.291139  3.213592  3.948718  3.258929  3.644231  3.500000  3.975000  4.141026  4.023256  4.466667  6.116279  4.419355 
dram[5]:  4.855072  6.300000  7.090909  6.162791  3.358490  3.518072  3.217391  4.072289  3.645455  3.656566  3.339623  4.287671  4.125000  4.734375  3.792683  5.500000 
average row locality = 31893/7677 = 4.154357
number of total memory accesses made:
dram[0]:         0         0         0         0         0         0         0         0         0         0         0         0         0         0         0         0 
dram[1]:         0         0         0         0         0         0         0         0         0         0         0         0         0         0         0         0 
dram[2]:         0         0         0         0         0         0         0         0         0         0         0         0         0         0         0         0 
dram[3]:         0         0         0         0         0         0         0         0         0         0         0         0         0         0         0         0 
dram[4]:         0         0         0         0         0         0         0         0         0         0         0         0         0         0         0         0 
dram[5]:         0         0         0         0         0         0         0         0         0         0         0         0         0         0         0         0 
total accesses: 0
min_bank_accesses = 0!
min_chip_accesses = 0!
number of total read accesses:
dram[0]:       155       127       119       140       143       131       136       167       154       157       134       149       158       141       126       142 
dram[1]:       162       122       124       124       157       112       146       142       181       142       143       126       169       131       131       132 
dram[2]:       143       133       124       128       134       142       154       141       157       160       153       136       148       159       131       129 
dram[3]:       141       142       110       130       121       158       134       148       143       164       130       136       141       161       124       126 
dram[4]:       138       130       121       124       140       136       125       150       154       144       131       132       145       145       120       121 
dram[5]:       148       140       137       116       150       123       153       139       161       149       148       125       151       131       134       119 
total reads: 13384
bank skew: 181/110 = 1.65
chip skew: 2279/2156 = 1.06
number of total write accesses:
dram[0]:       188       162       160       189       212       188       202       258       232       230       197       223       237       188       158       193 
dram[1]:       207       154       178       169       228       162       214       222       265       200       201       194       249       168       172       178 
dram[2]:       182       158       167       170       186       205       230       203       223       231       222       193       199       220       169       164 
dram[3]:       189       185       138       176       175       229       199       219       197       240       200       185       189       216       149       168 
dram[4]:       170       155       153       159       199       195       183       215       225       206       187       191       201       190       143       153 
dram[5]:       187       175       175       149       206       169       217       199       240       213       206       188       212       172       177       145 
total reads: 18509
bank skew: 265/138 = 1.92
chip skew: 3217/2925 = 1.10
average mf latency per bank:
dram[0]:        587       532       614       510       539       540       677       510       541       513       594       552       514       606       622       514
dram[1]:        509       534       512       540       460       616       575       546       449       559       537       584       454       638       536       511
dram[2]:        534       588       600       581       580       514       545       630       550       493       515       557       550       483       550       538
dram[3]:        482       525       698       565       585       454       610       577       591       481       579       570       569       491       602       528
dram[4]:        521       499       625       618       546       551       668       562       531       560       601       620       543       576       596       602
dram[5]:        484       470       563       623       491       590       577       597       487       523       529       594       508       603       502       609
maximum mf latency per bank:
dram[0]:       1815      1261      2125      1532      1847      1652      1643      1468      1560      1343      1428      1373      1533      1652      1584      1511
dram[1]:       1206      1260      1601      1514      1454      1504      1480      1176      1235      1189      1265      1238      1254      1239      1178      1206
dram[2]:       1696      1575      2053      2002      1772      1765      1708      1505      1601      1546      1542      1498      1588      1529      1375      1582
dram[3]:       1547      1815      1819      2028      1688      1613      1550      1758      1539      1532      1446      1643      1632      1529      1261      1719
dram[4]:       1862      1917      2230      2172      2022      1867      1646      1591      1682      1446      1457      1497      1496      1600      1780      1514
dram[5]:       1836      1814      2224      2080      1758      1721      1683      1602      1663      1420      1401      1402      1411      1320      1370      1416

Number of Memory Banks Accessed per Memory Operation per Warp (from 0):
0	0	0	0	0	0	0	0	0	0	0	0	0	0	0	0	0	0	0	0	0	0	0	0	0	0	0	0	0	0	0	0	0	0	0	0	0	0	0	0	0	0	0	0	0	0	0	0	0	0	0	0	0	0	0	0	0	0	0	0	0	0	0	0	0	0	0	0	0	0	0	0	0	0	0	0	0	0	0	0	0	0	0	0	0	0	0	0	0	0	0	0	0	0	0	0	
Average # of Memory Banks Accessed per Memory Operation per Warp=-nan

position of mrq chosen
0	0	0	0	0	0	0	0	0	0	0	0	0	0	0	0	

average position of mrq chosen = -nan
Memory Partition 0: 
Cache L2_bank_000:
MSHR contents

Cache L2_bank_001:
MSHR contents

In Dram Latency Queue (total = 0): 
DRAM[0]: 16 bks, busW=4 BL=8 CL=12, tRRD=2 tCCD=6, tRCD=12 tRAS=28 tRP=12 tRC=40
n_cmd=193454 n_nop=180209 n_act=1376 n_pre=1360 n_req=5496 n_rd=4558 n_write=5951 bw_util=0.4346
n_activity=60656 dram_eff=1.386
bk0: 310a 182995i bk1: 254a 184313i bk2: 238a 183272i bk3: 280a 182366i bk4: 286a 179839i bk5: 262a 180651i bk6: 272a 179306i bk7: 334a 177307i bk8: 308a 179854i bk9: 314a 180068i bk10: 268a 180826i bk11: 298a 179576i bk12: 316a 179594i bk13: 282a 180103i bk14: 252a 181870i bk15: 284a 181873i 
dram_util_bins: 0 0 0 0 0 0 0 0 0 0
dram_eff_bins: 0 0 0 0 0 0 0 0 0 0
mrqq: max=16 avg=1.68529
Memory Partition 1: 
Cache L2_bank_002:
MSHR contents

Cache L2_bank_003:
MSHR contents

In Dram Latency Queue (total = 0): 
DRAM[1]: 16 bks, busW=4 BL=8 CL=12, tRRD=2 tCCD=6, tRCD=12 tRAS=28 tRP=12 tRC=40
n_cmd=193454 n_nop=180394 n_act=1370 n_pre=1354 n_req=5405 n_rd=4488 n_write=5848 bw_util=0.4274
n_activity=61779 dram_eff=1.338
bk0: 324a 181999i bk1: 244a 183821i bk2: 248a 182858i bk3: 248a 182916i bk4: 314a 179269i bk5: 224a 181713i bk6: 292a 179394i bk7: 284a 179499i bk8: 362a 178168i bk9: 284a 180979i bk10: 286a 180932i bk11: 252a 181926i bk12: 338a 178841i bk13: 262a 181716i bk14: 262a 182056i bk15: 264a 181813i 
dram_util_bins: 0 0 0 0 0 0 0 0 0 0
dram_eff_bins: 0 0 0 0 0 0 0 0 0 0
mrqq: max=16 avg=1.42266
Memory Partition 2: 
Cache L2_bank_004:
MSHR contents

Cache L2_bank_005:
MSHR contents

In Dram Latency Queue (total = 0): 
DRAM[2]: 16 bks, busW=4 BL=8 CL=12, tRRD=2 tCCD=6, tRCD=12 tRAS=28 tRP=12 tRC=40
n_cmd=193454 n_nop=180605 n_act=1275 n_pre=1259 n_req=5394 n_rd=4544 n_write=5771 bw_util=0.4266
n_activity=62478 dram_eff=1.321
bk0: 286a 183983i bk1: 266a 183821i bk2: 248a 183812i bk3: 256a 183616i bk4: 268a 180790i bk5: 284a 180647i bk6: 308a 178581i bk7: 282a 181094i bk8: 314a 180244i bk9: 320a 180102i bk10: 306a 179918i bk11: 272a 181410i bk12: 296a 180939i bk13: 318a 180093i bk14: 262a 183087i bk15: 258a 182568i 
dram_util_bins: 0 0 0 0 0 0 0 0 0 0
dram_eff_bins: 0 0 0 0 0 0 0 0 0 0
mrqq: max=16 avg=1.46279
Memory Partition 3: 
Cache L2_bank_006:
MSHR contents

Cache L2_bank_007:
MSHR contents

In Dram Latency Queue (total = 0): 
DRAM[3]: 16 bks, busW=4 BL=8 CL=12, tRRD=2 tCCD=6, tRCD=12 tRAS=28 tRP=12 tRC=40
n_cmd=193454 n_nop=180958 n_act=1225 n_pre=1209 n_req=5263 n_rd=4418 n_write=5644 bw_util=0.4161
n_activity=61879 dram_eff=1.301
bk0: 282a 183327i bk1: 284a 183772i bk2: 220a 185560i bk3: 260a 182868i bk4: 242a 182338i bk5: 316a 179591i bk6: 268a 180724i bk7: 296a 178829i bk8: 286a 181572i bk9: 328a 179586i bk10: 260a 180652i bk11: 272a 181187i bk12: 282a 181526i bk13: 322a 179894i bk14: 248a 183453i bk15: 252a 182569i 
dram_util_bins: 0 0 0 0 0 0 0 0 0 0
dram_eff_bins: 0 0 0 0 0 0 0 0 0 0
mrqq: max=16 avg=1.37546
Memory Partition 4: 
Cache L2_bank_008:
MSHR contents

Cache L2_bank_009:
MSHR contents

In Dram Latency Queue (total = 0): 
DRAM[4]: 16 bks, busW=4 BL=8 CL=12, tRRD=2 tCCD=6, tRCD=12 tRAS=28 tRP=12 tRC=40
n_cmd=193454 n_nop=181444 n_act=1168 n_pre=1152 n_req=5081 n_rd=4312 n_write=5378 bw_util=0.4007
n_activity=59265 dram_eff=1.308
bk0: 276a 183826i bk1: 260a 183955i bk2: 242a 184072i bk3: 248a 184060i bk4: 280a 180793i bk5: 272a 181006i bk6: 250a 181828i bk7: 300a 179473i bk8: 308a 180236i bk9: 288a 181224i bk10: 262a 182149i bk11: 264a 181831i bk12: 290a 181032i bk13: 290a 181010i bk14: 240a 183754i bk15: 242a 182978i 
dram_util_bins: 0 0 0 0 0 0 0 0 0 0
dram_eff_bins: 0 0 0 0 0 0 0 0 0 0
mrqq: max=16 avg=1.47928
Memory Partition 5: 
Cache L2_bank_010:
MSHR contents

Cache L2_bank_011:
MSHR contents

In Dram Latency Queue (total = 0): 
DRAM[5]: 16 bks, busW=4 BL=8 CL=12, tRRD=2 tCCD=6, tRCD=12 tRAS=28 tRP=12 tRC=40
n_cmd=193454 n_nop=180914 n_act=1263 n_pre=1247 n_req=5254 n_rd=4448 n_write=5582 bw_util=0.4148
n_activity=61189 dram_eff=1.311
bk0: 296a 183170i bk1: 280a 183692i bk2: 274a 182628i bk3: 232a 184454i bk4: 300a 180575i bk5: 246a 182135i bk6: 306a 178913i bk7: 278a 180897i bk8: 322a 179265i bk9: 298a 180778i bk10: 296a 180730i bk11: 250a 181738i bk12: 302a 180213i bk13: 262a 181718i bk14: 268a 181936i bk15: 238a 183268i 
dram_util_bins: 0 0 0 0 0 0 0 0 0 0
dram_eff_bins: 0 0 0 0 0 0 0 0 0 0
mrqq: max=16 avg=1.38542

========= L2 cache stats =========
L2_cache_bank[0]: Access = 6918, Miss = 1125, Miss_rate = 0.163, Pending_hits = 93, Reservation_fails = 1255
L2_cache_bank[1]: Access = 7010, Miss = 1154, Miss_rate = 0.165, Pending_hits = 87, Reservation_fails = 670
L2_cache_bank[2]: Access = 6812, Miss = 1213, Miss_rate = 0.178, Pending_hits = 88, Reservation_fails = 743
L2_cache_bank[3]: Access = 6753, Miss = 1031, Miss_rate = 0.153, Pending_hits = 93, Reservation_fails = 413
L2_cache_bank[4]: Access = 6631, Miss = 1144, Miss_rate = 0.173, Pending_hits = 92, Reservation_fails = 827
L2_cache_bank[5]: Access = 6792, Miss = 1128, Miss_rate = 0.166, Pending_hits = 80, Reservation_fails = 389
L2_cache_bank[6]: Access = 6799, Miss = 1044, Miss_rate = 0.154, Pending_hits = 91, Reservation_fails = 319
L2_cache_bank[7]: Access = 6950, Miss = 1165, Miss_rate = 0.168, Pending_hits = 81, Reservation_fails = 457
L2_cache_bank[8]: Access = 6838, Miss = 1074, Miss_rate = 0.157, Pending_hits = 86, Reservation_fails = 647
L2_cache_bank[9]: Access = 6553, Miss = 1082, Miss_rate = 0.165, Pending_hits = 85, Reservation_fails = 321
L2_cache_bank[10]: Access = 6973, Miss = 1182, Miss_rate = 0.170, Pending_hits = 79, Reservation_fails = 530
L2_cache_bank[11]: Access = 6687, Miss = 1042, Miss_rate = 0.156, Pending_hits = 82, Reservation_fails = 321
L2_total_cache_accesses = 81716
L2_total_cache_misses = 13384
L2_total_cache_miss_rate = 0.1638
L2_total_cache_pending_hits = 1037
L2_total_cache_reservation_fails = 6892
L2_total_cache_breakdown:
	L2_cache_stats_breakdown[GLOBAL_ACC_R][HIT] = 3599
	L2_cache_stats_breakdown[GLOBAL_ACC_R][HIT_RESERVED] = 21
	L2_cache_stats_breakdown[GLOBAL_ACC_R][MISS] = 163
	L2_cache_stats_breakdown[GLOBAL_ACC_R][RESERVATION_FAIL] = 76
	L2_cache_stats_breakdown[LOCAL_ACC_R][HIT] = 6779
	L2_cache_stats_breakdown[LOCAL_ACC_R][HIT_RESERVED] = 123
	L2_cache_stats_breakdown[LOCAL_ACC_R][MISS] = 441
	L2_cache_stats_breakdown[CONST_ACC_R][HIT] = 22
	L2_cache_stats_breakdown[CONST_ACC_R][HIT_RESERVED] = 6
	L2_cache_stats_breakdown[CONST_ACC_R][MISS] = 2
	L2_cache_stats_breakdown[CONST_ACC_R][RESERVATION_FAIL] = 435
	L2_cache_stats_breakdown[GLOBAL_ACC_W][HIT] = 5437
	L2_cache_stats_breakdown[GLOBAL_ACC_W][HIT_RESERVED] = 707
	L2_cache_stats_breakdown[GLOBAL_ACC_W][MISS] = 2048
	L2_cache_stats_breakdown[GLOBAL_ACC_W][RESERVATION_FAIL] = 8
	L2_cache_stats_breakdown[LOCAL_ACC_W][HIT] = 35045
	L2_cache_stats_breakdown[LOCAL_ACC_W][HIT_RESERVED] = 26
	L2_cache_stats_breakdown[LOCAL_ACC_W][MISS] = 9417
	L2_cache_stats_breakdown[LOCAL_ACC_W][RESERVATION_FAIL] = 295
	L2_cache_stats_breakdown[L1_WRBK_ACC][HIT] = 3710
	L2_cache_stats_breakdown[L1_WRBK_ACC][MISS] = 1257
	L2_cache_stats_breakdown[INST_ACC_R][HIT] = 12703
	L2_cache_stats_breakdown[INST_ACC_R][HIT_RESERVED] = 154
	L2_cache_stats_breakdown[INST_ACC_R][MISS] = 56
	L2_cache_stats_breakdown[INST_ACC_R][RESERVATION_FAIL] = 6078
L2_cache_data_port_util = 0.146
L2_cache_fill_port_util = 0.030

icnt_total_pkts_mem_to_simt=172965
icnt_total_pkts_simt_to_mem=292598
LD_mem_lat_dist  0 0 0 0 0 0 0 0 0 0 0 0 0 0 0 0 0 0 0 0 0 0 0 0 0 0 0
ST_mem_lat_dist  0 0 0 0 0 0 0 0 0 0 0 0 0 0 0 0 0 0 0 0 0 0 0 0 0 0 0
----------------------------Interconnect-DETAILS--------------------------------
Class 0:
Packet latency average = 17.9786
	minimum = 6
	maximum = 688
Network latency average = 14.0133
	minimum = 6
	maximum = 677
Slowest packet = 392
Flit latency average = 13.1767
	minimum = 6
	maximum = 673
Slowest flit = 1840
Fragmentation average = 0.138693
	minimum = 0
	maximum = 642
Injected packet rate average = 0.0400464
	minimum = 0.0344166 (at node 2)
	maximum = 0.044829 (at node 16)
Accepted packet rate average = 0.0400464
	minimum = 0.033052 (at node 8)
	maximum = 0.0478312 (at node 16)
Injected flit rate average = 0.117654
	minimum = 0.0920529 (at node 19)
	maximum = 0.140819 (at node 14)
Accepted flit rate average= 0.117654
	minimum = 0.0648758 (at node 3)
	maximum = 0.171578 (at node 15)
Injected packet length average = 2.93795
Accepted packet length average = 2.93795
Total in-flight flits = 0 (0 measured)
====== Overall Traffic Statistics ======
====== Traffic class 0 ======
Packet latency average = 17.9786 (1 samples)
	minimum = 6 (1 samples)
	maximum = 688 (1 samples)
Network latency average = 14.0133 (1 samples)
	minimum = 6 (1 samples)
	maximum = 677 (1 samples)
Flit latency average = 13.1767 (1 samples)
	minimum = 6 (1 samples)
	maximum = 673 (1 samples)
Fragmentation average = 0.138693 (1 samples)
	minimum = 0 (1 samples)
	maximum = 642 (1 samples)
Injected packet rate average = 0.0400464 (1 samples)
	minimum = 0.0344166 (1 samples)
	maximum = 0.044829 (1 samples)
Accepted packet rate average = 0.0400464 (1 samples)
	minimum = 0.033052 (1 samples)
	maximum = 0.0478312 (1 samples)
Injected flit rate average = 0.117654 (1 samples)
	minimum = 0.0920529 (1 samples)
	maximum = 0.140819 (1 samples)
Accepted flit rate average = 0.117654 (1 samples)
	minimum = 0.0648758 (1 samples)
	maximum = 0.171578 (1 samples)
Injected packet size average = 2.93795 (1 samples)
Accepted packet size average = 2.93795 (1 samples)
Hops average = 1 (1 samples)
----------------------------END-of-Interconnect-DETAILS-------------------------


gpgpu_simulation_time = 0 days, 0 hrs, 3 min, 43 sec (223 sec)
gpgpu_simulation_rate = 281087 (inst/sec)
gpgpu_simulation_rate = 657 (cycle/sec)
GPGPU-Sim API: Stream Manager State
GPGPU-Sim: detected inactive GPU simulation thread

checksum=75ef40cb5b8e
Kernel Time: 221034.218750 
