

        *** GPGPU-Sim Simulator Version 3.2.2  [build 0] ***


GPGPU-Sim PTX: simulation mode 0 (can change with PTX_SIM_MODE_FUNC environment variable:
               1=functional simulation only, 0=detailed performance simulator)
GPGPU-Sim: Configuration options:

-network_mode                           1 # Interconnection network mode
-inter_config_file   config_fermi_islip.icnt # Interconnection network config file
-gpgpu_ptx_use_cuobjdump                    1 # Use cuobjdump to extract ptx and sass from binaries
-gpgpu_experimental_lib_support                    0 # Try to extract code from cuda libraries [Broken because of unknown cudaGetExportTable]
-gpgpu_ptx_convert_to_ptxplus                    0 # Convert SASS (native ISA) to ptxplus and run ptxplus
-gpgpu_ptx_force_max_capability                   20 # Force maximum compute capability
-gpgpu_ptx_inst_debug_to_file                    0 # Dump executed instructions' debug information to file
-gpgpu_ptx_inst_debug_file       inst_debug.txt # Executed instructions' debug output file
-gpgpu_ptx_inst_debug_thread_uid                    1 # Thread UID for executed instructions' debug output
-gpgpu_simd_model                       1 # 1 = post-dominator
-gpgpu_shader_core_pipeline              1536:32 # shader core pipeline config, i.e., {<nthread>:<warpsize>}
-gpgpu_tex_cache:l1  4:128:24,L:R:m:N:L,F:128:4,128:2 # per-shader L1 texture cache  (READ-ONLY) config  {<nsets>:<bsize>:<assoc>,<rep>:<wr>:<alloc>:<wr_alloc>,<mshr>:<N>:<merge>,<mq>:<rf>}
-gpgpu_const_cache:l1 64:64:2,L:R:f:N:L,A:2:32,4 # per-shader L1 constant memory cache  (READ-ONLY) config  {<nsets>:<bsize>:<assoc>,<rep>:<wr>:<alloc>:<wr_alloc>,<mshr>:<N>:<merge>,<mq>} 
-gpgpu_cache:il1     4:128:4,L:R:f:N:L,A:2:32,4 # shader L1 instruction cache config  {<nsets>:<bsize>:<assoc>,<rep>:<wr>:<alloc>:<wr_alloc>,<mshr>:<N>:<merge>,<mq>} 
-gpgpu_cache:dl1     32:128:4,L:L:m:N:H,A:32:8,8 # per-shader L1 data cache config  {<nsets>:<bsize>:<assoc>,<rep>:<wr>:<alloc>:<wr_alloc>,<mshr>:<N>:<merge>,<mq> | none}
-gpgpu_cache:dl1PrefL1                 none # per-shader L1 data cache config  {<nsets>:<bsize>:<assoc>,<rep>:<wr>:<alloc>:<wr_alloc>,<mshr>:<N>:<merge>,<mq> | none}
-gpgpu_cache:dl1PreShared                 none # per-shader L1 data cache config  {<nsets>:<bsize>:<assoc>,<rep>:<wr>:<alloc>:<wr_alloc>,<mshr>:<N>:<merge>,<mq> | none}
-gmem_skip_L1D                          0 # global memory access skip L1D cache (implements -Xptxas -dlcm=cg, default=no skip)
-gpgpu_perfect_mem                      0 # enable perfect memory mode (no cache miss)
-n_regfile_gating_group                    4 # group of lanes that should be read/written together)
-gpgpu_clock_gated_reg_file                    0 # enable clock gated reg file for power calculations
-gpgpu_clock_gated_lanes                    0 # enable clock gated lanes for power calculations
-gpgpu_shader_registers                32768 # Number of registers per shader core. Limits number of concurrent CTAs. (default 8192)
-gpgpu_shader_cta                       8 # Maximum number of concurrent CTAs in shader (default 8)
-gpgpu_num_cta_barriers                   16 # Maximum number of named barriers per CTA (default 16)
-gpgpu_n_clusters                      15 # number of processing clusters
-gpgpu_n_cores_per_cluster                    1 # number of simd cores per cluster
-gpgpu_n_cluster_ejection_buffer_size                    8 # number of packets in ejection buffer
-gpgpu_n_ldst_response_buffer_size                    2 # number of response packets in ld/st unit ejection buffer
-gpgpu_shmem_size                   16384 # Size of shared memory per shader core (default 16kB)
-gpgpu_shmem_size                   49152 # Size of shared memory per shader core (default 16kB)
-gpgpu_shmem_size_PrefL1                16384 # Size of shared memory per shader core (default 16kB)
-gpgpu_shmem_size_PrefShared                16384 # Size of shared memory per shader core (default 16kB)
-gpgpu_shmem_num_banks                   32 # Number of banks in the shared memory in each shader core (default 16)
-gpgpu_shmem_limited_broadcast                    0 # Limit shared memory to do one broadcast per cycle (default on)
-gpgpu_shmem_warp_parts                    1 # Number of portions a warp is divided into for shared memory bank conflict check 
-gpgpu_warpdistro_shader                   -1 # Specify which shader core to collect the warp size distribution from
-gpgpu_warp_issue_shader                    0 # Specify which shader core to collect the warp issue distribution from
-gpgpu_local_mem_map                    1 # Mapping from local memory space address to simulated GPU physical address space (default = enabled)
-gpgpu_num_reg_banks                   16 # Number of register banks (default = 8)
-gpgpu_reg_bank_use_warp_id                    0 # Use warp ID in mapping registers to banks (default = off)
-gpgpu_operand_collector_num_units_sp                    6 # number of collector units (default = 4)
-gpgpu_operand_collector_num_units_sfu                    8 # number of collector units (default = 4)
-gpgpu_operand_collector_num_units_mem                    2 # number of collector units (default = 2)
-gpgpu_operand_collector_num_units_gen                    0 # number of collector units (default = 0)
-gpgpu_operand_collector_num_in_ports_sp                    2 # number of collector unit in ports (default = 1)
-gpgpu_operand_collector_num_in_ports_sfu                    1 # number of collector unit in ports (default = 1)
-gpgpu_operand_collector_num_in_ports_mem                    1 # number of collector unit in ports (default = 1)
-gpgpu_operand_collector_num_in_ports_gen                    0 # number of collector unit in ports (default = 0)
-gpgpu_operand_collector_num_out_ports_sp                    2 # number of collector unit in ports (default = 1)
-gpgpu_operand_collector_num_out_ports_sfu                    1 # number of collector unit in ports (default = 1)
-gpgpu_operand_collector_num_out_ports_mem                    1 # number of collector unit in ports (default = 1)
-gpgpu_operand_collector_num_out_ports_gen                    0 # number of collector unit in ports (default = 0)
-gpgpu_coalesce_arch                   13 # Coalescing arch (default = 13, anything else is off for now)
-gpgpu_num_sched_per_core                    2 # Number of warp schedulers per core
-gpgpu_max_insn_issue_per_warp                    1 # Max number of instructions that can be issued per warp in one cycle by scheduler
-gpgpu_simt_core_sim_order                    1 # Select the simulation order of cores in a cluster (0=Fix, 1=Round-Robin)
-gpgpu_pipeline_widths        2,1,1,2,1,1,2 # Pipeline widths ID_OC_SP,ID_OC_SFU,ID_OC_MEM,OC_EX_SP,OC_EX_SFU,OC_EX_MEM,EX_WB
-gpgpu_num_sp_units                     2 # Number of SP units (default=1)
-gpgpu_num_sfu_units                    1 # Number of SF units (default=1)
-gpgpu_num_mem_units                    1 # Number if ldst units (default=1) WARNING: not hooked up to anything
-gpgpu_scheduler                      gto # Scheduler configuration: < lrr | gto | two_level_active > If two_level_active:<num_active_warps>:<inner_prioritization>:<outer_prioritization>For complete list of prioritization values see shader.h enum scheduler_prioritization_typeDefault: gto
-gpgpu_dram_scheduler                    1 # 0 = fifo, 1 = FR-FCFS (defaul)
-gpgpu_dram_partition_queues              8:8:8:8 # i2$:$2d:d2$:$2i
-l2_ideal                               0 # Use a ideal L2 cache that always hit
-gpgpu_cache:dl2     64:128:8,L:B:m:W:L,A:32:4,4:0,32 # unified banked L2 data cache config  {<nsets>:<bsize>:<assoc>,<rep>:<wr>:<alloc>:<wr_alloc>,<mshr>:<N>:<merge>,<mq>}
-gpgpu_cache:dl2_texture_only                    0 # L2 cache used for texture only
-gpgpu_n_mem                            3 # number of memory modules (e.g. memory controllers) in gpu
-gpgpu_n_sub_partition_per_mchannel                    2 # number of memory subpartition in each memory module
-gpgpu_n_mem_per_ctrlr                    2 # number of memory chips per memory controller
-gpgpu_memlatency_stat                   14 # track and display latency statistics 0x2 enables MC, 0x4 enables queue logs
-gpgpu_frfcfs_dram_sched_queue_size                   16 # 0 = unlimited (default); # entries per chip
-gpgpu_dram_return_queue_size                  116 # 0 = unlimited (default); # entries per chip
-gpgpu_dram_buswidth                    4 # default = 4 bytes (8 bytes per cycle at DDR)
-gpgpu_dram_burst_length                    8 # Burst length of each DRAM request (default = 4 data bus cycle)
-dram_data_command_freq_ratio                    4 # Frequency ratio between DRAM data bus and command bus (default = 2 times, i.e. DDR)
-gpgpu_dram_timing_opt nbk=16:CCD=2:RRD=6:RCD=12:RAS=28:RP=12:RC=40: CL=12:WL=4:CDLR=5:WR=12:nbkgrp=4:CCDL=3:RTPL=2 # DRAM timing parameters = {nbk:tCCD:tRRD:tRCD:tRAS:tRP:tRC:CL:WL:tCDLR:tWR:nbkgrp:tCCDL:tRTPL}
-rop_latency                          120 # ROP queue latency (default 85)
-dram_latency                         100 # DRAM latency (default 30)
-gpgpu_mem_addr_mapping dramid@8;00000000.00000000.00000000.00000000.0000RRRR.RRRRRRRR.BBBCCCCB.CCSSSSSS # mapping memory address to dram model {dramid@<start bit>;<memory address map>}
-gpgpu_mem_addr_test                    0 # run sweep test to check address mapping for aliased address
-gpgpu_mem_address_mask                    1 # 0 = old addressing mask, 1 = new addressing mask, 2 = new add. mask + flipped bank sel and chip sel bits
-gpuwattch_xml_file  gpuwattch_gtx480.xml # GPUWattch XML file
-power_simulation_enabled                    0 # Turn on power simulator (1=On, 0=Off)
-power_per_cycle_dump                    0 # Dump detailed power output each cycle
-power_trace_enabled                    0 # produce a file for the power trace (1=On, 0=Off)
-power_trace_zlevel                     6 # Compression level of the power trace output log (0=no comp, 9=highest)
-steady_power_levels_enabled                    0 # produce a file for the steady power levels (1=On, 0=Off)
-steady_state_definition                  8:4 # allowed deviation:number of samples
-gpgpu_max_cycle                        0 # terminates gpu simulation early (0 = no limit)
-gpgpu_max_insn                         0 # terminates gpu simulation early (0 = no limit)
-gpgpu_max_cta                          0 # terminates gpu simulation early (0 = no limit)
-gpgpu_runtime_stat                   500 # display runtime statistics such as dram utilization {<freq>:<flag>}
-liveness_message_freq                    1 # Minimum number of seconds between simulation liveness messages (0 = always print)
-gpgpu_flush_l1_cache                    0 # Flush L1 cache at the end of each kernel call
-gpgpu_flush_l2_cache                    0 # Flush L2 cache at the end of each kernel call
-gpgpu_deadlock_detect                    1 # Stop the simulation at deadlock (1=on (default), 0=off)
-gpgpu_ptx_instruction_classification                    0 # if enabled will classify ptx instruction types per kernel (Max 255 kernels now)
-gpgpu_ptx_sim_mode                     0 # Select between Performance (default) or Functional simulation (1)
-gpgpu_clock_domains 700.0:700.0:700.0:924.0 # Clock Domain Frequencies in MhZ {<Core Clock>:<ICNT Clock>:<L2 Clock>:<DRAM Clock>}
-gpgpu_max_concurrent_kernel                    8 # maximum kernels that can run concurrently on GPU
-gpgpu_cflog_interval                    0 # Interval between each snapshot in control flow logger
-visualizer_enabled                     0 # Turn on visualizer output (1=On, 0=Off)
-visualizer_outputfile                 NULL # Specifies the output log file for visualizer
-visualizer_zlevel                      6 # Compression level of the visualizer output log (0=no comp, 9=highest)
-trace_enabled                          0 # Turn on traces
-trace_components                    none # comma seperated list of traces to enable. Complete list found in trace_streams.tup. Default none
-trace_sampling_core                    0 # The core which is printed using CORE_DPRINTF. Default 0
-trace_sampling_memory_partition                   -1 # The memory partition which is printed using MEMPART_DPRINTF. Default -1 (i.e. all)
-enable_ptx_file_line_stats                    1 # Turn on PTX source line statistic profiling. (1 = On)
-ptx_line_stats_filename gpgpu_inst_stats.txt # Output file for PTX source line statistics.
-save_embedded_ptx                      0 # saves ptx files embedded in binary as <n>.ptx
-keep                                   0 # keep intermediate files created by GPGPU-Sim when interfacing with external programs
-gpgpu_ptx_save_converted_ptxplus                    0 # Saved converted ptxplus to a file
-ptx_opcode_latency_int         4,13,4,5,145 # Opcode latencies for integers <ADD,MAX,MUL,MAD,DIV>Default 1,1,19,25,145
-ptx_opcode_latency_fp          4,13,4,5,39 # Opcode latencies for single precision floating points <ADD,MAX,MUL,MAD,DIV>Default 1,1,1,1,30
-ptx_opcode_latency_dp         8,19,8,8,330 # Opcode latencies for double precision floating points <ADD,MAX,MUL,MAD,DIV>Default 8,8,8,8,335
-ptx_opcode_initiation_int            1,2,2,1,8 # Opcode initiation intervals for integers <ADD,MAX,MUL,MAD,DIV>Default 1,1,4,4,32
-ptx_opcode_initiation_fp            1,2,1,1,4 # Opcode initiation intervals for single precision floating points <ADD,MAX,MUL,MAD,DIV>Default 1,1,1,1,5
-ptx_opcode_initiation_dp         8,16,8,8,130 # Opcode initiation intervals for double precision floating points <ADD,MAX,MUL,MAD,DIV>Default 8,8,8,8,130
DRAM Timing Options:
nbk                                    16 # number of banks
CCD                                     2 # column to column delay
RRD                                     6 # minimal delay between activation of rows in different banks
RCD                                    12 # row to column delay
RAS                                    28 # time needed to activate row
RP                                     12 # time needed to precharge (deactivate) row
RC                                     40 # row cycle time
CDLR                                    5 # switching from write to read (changes tWTR)
WR                                     12 # last data-in to row precharge
CL                                     12 # CAS latency
WL                                      4 # Write latency
nbkgrp                                  4 # number of bank groups
CCDL                                    3 # column to column delay between accesses to different bank groups
RTPL                                    2 # read to precharge delay between accesses to different bank groups
Total number of memory sub partition = 6
addr_dec_mask[CHIP]  = 0000000000000000 	high:64 low:0
addr_dec_mask[BK]    = 000000000000e100 	high:16 low:8
addr_dec_mask[ROW]   = 000000000fff0000 	high:28 low:16
addr_dec_mask[COL]   = 0000000000001eff 	high:13 low:0
addr_dec_mask[BURST] = 000000000000003f 	high:6 low:0
sub_partition_id_mask = 0000000000000100
GPGPU-Sim uArch: clock freqs: 700000000.000000:700000000.000000:700000000.000000:924000000.000000
GPGPU-Sim uArch: clock periods: 0.00000000142857142857:0.00000000142857142857:0.00000000142857142857:0.00000000108225108225
*** Initializing Memory Statistics ***
GPGPU-Sim uArch: interconnect node map (shaderID+MemID to icntID)
GPGPU-Sim uArch: Memory nodes ID start from index: 15
GPGPU-Sim uArch:    0   1   2   3   4
GPGPU-Sim uArch:    5   6   7   8   9
GPGPU-Sim uArch:   10  11  12  13  14
GPGPU-Sim uArch:   15  16  17  18  19
GPGPU-Sim uArch:   20  21  22  23  24
GPGPU-Sim uArch:   25  26
GPGPU-Sim uArch: interconnect node reverse map (icntID to shaderID+MemID)
GPGPU-Sim uArch: Memory nodes start from ID: 15
GPGPU-Sim uArch:    0   1   2   3   4
GPGPU-Sim uArch:    5   6   7   8   9
GPGPU-Sim uArch:   10  11  12  13  14
GPGPU-Sim uArch:   15  16  17  18  19
GPGPU-Sim uArch:   20  21  22  23  24
GPGPU-Sim uArch:   25  26
c498d9f32ab5dd92351405d48e0f6df7  /sciclone/data20/adwait/applications/benchmarks/CUDA/BFS/gpgpu_ptx_sim__BFS
GPGPU-Sim uArch: performance model initialization complete.
GPGPU-Sim PTX: __cudaRegisterFatBinary, fat_cubin_handle = 1, filename=bfs.cu
self exe links to: /sciclone/data20/adwait/applications/benchmarks/CUDA/BFS/gpgpu_ptx_sim__BFS
Running md5sum using "md5sum /sciclone/data20/adwait/applications/benchmarks/CUDA/BFS/gpgpu_ptx_sim__BFS "
Parsing file _cuobjdump_complete_output_ImhV25
######### cuobjdump parser ########
## Adding new section ELF
Adding arch: sm_20
Adding identifier: bfs.cu
## Adding new section PTX
Adding ptx filename: _cuobjdump_1.ptx
Adding arch: sm_20
Adding identifier: bfs.cu
Done parsing!!!
GPGPU-Sim PTX: __cudaRegisterFunction _Z6KernelP4NodePiPbS2_S1_S2_i : hostFun 0x0x405636, fat_cubin_handle = 1
GPGPU-Sim PTX: instruction assembly for function '_Z6KernelP4NodePiPbS2_S1_S2_i'...   done.
GPGPU-Sim PTX: finding reconvergence points for '_Z6KernelP4NodePiPbS2_S1_S2_i'...
GPGPU-Sim PTX: Finding dominators for '_Z6KernelP4NodePiPbS2_S1_S2_i'...
GPGPU-Sim PTX: Finding immediate dominators for '_Z6KernelP4NodePiPbS2_S1_S2_i'...
GPGPU-Sim PTX: Finding postdominators for '_Z6KernelP4NodePiPbS2_S1_S2_i'...
GPGPU-Sim PTX: Finding immediate postdominators for '_Z6KernelP4NodePiPbS2_S1_S2_i'...
GPGPU-Sim PTX: pre-decoding instructions for '_Z6KernelP4NodePiPbS2_S1_S2_i'...
GPGPU-Sim PTX: reconvergence points for _Z6KernelP4NodePiPbS2_S1_S2_i...
GPGPU-Sim PTX:  1 (potential) branch divergence @  PC=0x030 (_1.ptx:72) @%p1 bra $Lt_0_5122;
GPGPU-Sim PTX:    immediate post dominator      @  PC=0x1e8 (_1.ptx:141) exit;
GPGPU-Sim PTX:  2 (potential) branch divergence @  PC=0x068 (_1.ptx:79) @%p2 bra $Lt_0_5122;
GPGPU-Sim PTX:    immediate post dominator      @  PC=0x1e8 (_1.ptx:141) exit;
GPGPU-Sim PTX:  3 (potential) branch divergence @  PC=0x0e0 (_1.ptx:97) @%p3 bra $Lt_0_5122;
GPGPU-Sim PTX:    immediate post dominator      @  PC=0x1e8 (_1.ptx:141) exit;
GPGPU-Sim PTX:  4 (potential) branch divergence @  PC=0x138 (_1.ptx:111) @%p4 bra $Lt_0_4354;
GPGPU-Sim PTX:    immediate post dominator      @  PC=0x1c8 (_1.ptx:134) add.s32 %r11, %r11, 1;
GPGPU-Sim PTX:  5 (potential) branch divergence @  PC=0x1e0 (_1.ptx:137) @%p5 bra $Lt_0_4098;
GPGPU-Sim PTX:    immediate post dominator      @  PC=0x1e8 (_1.ptx:141) exit;
GPGPU-Sim PTX: ... end of reconvergence points for _Z6KernelP4NodePiPbS2_S1_S2_i
GPGPU-Sim PTX: ... done pre-decoding instructions for '_Z6KernelP4NodePiPbS2_S1_S2_i'.
GPGPU-Sim PTX: finished parsing EMBEDDED .ptx file _1.ptx
Adding _cuobjdump_1.ptx with cubin handle 1
GPGPU-Sim PTX: extracting embedded .ptx to temporary file "_ptx_veBH63"
Running: cat _ptx_veBH63 | sed 's/.version 1.5/.version 1.4/' | sed 's/, texmode_independent//' | sed 's/\(\.extern \.const\[1\] .b8 \w\+\)\[\]/\1\[1\]/' | sed 's/const\[.\]/const\[0\]/g' > _ptx2_EGg8M2
GPGPU-Sim PTX: generating ptxinfo using "$CUDA_INSTALL_PATH/bin/ptxas --gpu-name=sm_20 -v _ptx2_EGg8M2 --output-file  /dev/null 2> _ptx_veBH63info"
GPGPU-Sim PTX: Kernel '_Z6KernelP4NodePiPbS2_S1_S2_i' : regs=18, lmem=0, smem=0, cmem=84
GPGPU-Sim PTX: removing ptxinfo using "rm -f _ptx_veBH63 _ptx2_EGg8M2 _ptx_veBH63info"
GPGPU-Sim PTX: loading globals with explicit initializers... 
GPGPU-Sim PTX: finished loading globals (0 bytes total).
GPGPU-Sim PTX: loading constants with explicit initializers...  done.
Reading File
Input file: ./data/graph65536.txt
Read File
Copied Everything to GPU memory

GPGPU-Sim PTX: cudaLaunch for 0x0x405636 (mode=performance simulation) on stream 0
GPGPU-Sim PTX: pushing kernel '_Z6KernelP4NodePiPbS2_S1_S2_i' to stream 0, gridDim= (256,1,1) blockDim = (256,1,1) 
kernel '_Z6KernelP4NodePiPbS2_S1_S2_i' transfer to GPU hardware scheduler
GPGPU-Sim uArch: Shader 1 bind to kernel 1 '_Z6KernelP4NodePiPbS2_S1_S2_i'
GPGPU-Sim uArch: CTA/core = 6, limited by: threads regs
GPGPU-Sim uArch: core:  1, cta: 0 initialized @(1,0)
GPGPU-Sim uArch: Shader 2 bind to kernel 1 '_Z6KernelP4NodePiPbS2_S1_S2_i'
GPGPU-Sim uArch: core:  2, cta: 0 initialized @(1,0)
GPGPU-Sim uArch: Shader 3 bind to kernel 1 '_Z6KernelP4NodePiPbS2_S1_S2_i'
GPGPU-Sim uArch: core:  3, cta: 0 initialized @(1,0)
GPGPU-Sim uArch: Shader 4 bind to kernel 1 '_Z6KernelP4NodePiPbS2_S1_S2_i'
GPGPU-Sim uArch: core:  4, cta: 0 initialized @(1,0)
GPGPU-Sim uArch: Shader 5 bind to kernel 1 '_Z6KernelP4NodePiPbS2_S1_S2_i'
GPGPU-Sim uArch: core:  5, cta: 0 initialized @(1,0)
GPGPU-Sim uArch: Shader 6 bind to kernel 1 '_Z6KernelP4NodePiPbS2_S1_S2_i'
GPGPU-Sim uArch: core:  6, cta: 0 initialized @(1,0)
GPGPU-Sim uArch: Shader 7 bind to kernel 1 '_Z6KernelP4NodePiPbS2_S1_S2_i'
GPGPU-Sim uArch: core:  7, cta: 0 initialized @(1,0)
GPGPU-Sim uArch: Shader 8 bind to kernel 1 '_Z6KernelP4NodePiPbS2_S1_S2_i'
GPGPU-Sim uArch: core:  8, cta: 0 initialized @(1,0)
GPGPU-Sim uArch: Shader 9 bind to kernel 1 '_Z6KernelP4NodePiPbS2_S1_S2_i'
GPGPU-Sim uArch: core:  9, cta: 0 initialized @(1,0)
GPGPU-Sim uArch: Shader 10 bind to kernel 1 '_Z6KernelP4NodePiPbS2_S1_S2_i'
GPGPU-Sim uArch: core: 10, cta: 0 initialized @(1,0)
GPGPU-Sim uArch: Shader 11 bind to kernel 1 '_Z6KernelP4NodePiPbS2_S1_S2_i'
GPGPU-Sim uArch: core: 11, cta: 0 initialized @(1,0)
GPGPU-Sim uArch: Shader 12 bind to kernel 1 '_Z6KernelP4NodePiPbS2_S1_S2_i'
GPGPU-Sim uArch: core: 12, cta: 0 initialized @(1,0)
GPGPU-Sim uArch: Shader 13 bind to kernel 1 '_Z6KernelP4NodePiPbS2_S1_S2_i'
GPGPU-Sim uArch: core: 13, cta: 0 initialized @(1,0)
GPGPU-Sim uArch: Shader 14 bind to kernel 1 '_Z6KernelP4NodePiPbS2_S1_S2_i'
GPGPU-Sim uArch: core: 14, cta: 0 initialized @(1,0)
GPGPU-Sim uArch: Shader 0 bind to kernel 1 '_Z6KernelP4NodePiPbS2_S1_S2_i'
GPGPU-Sim uArch: core:  0, cta: 0 initialized @(1,0)
GPGPU-Sim uArch: core:  1, cta: 1 initialized @(2,0)
GPGPU-Sim uArch: core:  2, cta: 1 initialized @(2,0)
GPGPU-Sim uArch: core:  3, cta: 1 initialized @(2,0)
GPGPU-Sim uArch: core:  4, cta: 1 initialized @(2,0)
GPGPU-Sim uArch: core:  5, cta: 1 initialized @(2,0)
GPGPU-Sim uArch: core:  6, cta: 1 initialized @(2,0)
GPGPU-Sim uArch: core:  7, cta: 1 initialized @(2,0)
GPGPU-Sim uArch: core:  8, cta: 1 initialized @(2,0)
GPGPU-Sim uArch: core:  9, cta: 1 initialized @(2,0)
GPGPU-Sim uArch: core: 10, cta: 1 initialized @(2,0)
GPGPU-Sim uArch: core: 11, cta: 1 initialized @(2,0)
GPGPU-Sim uArch: core: 12, cta: 1 initialized @(2,0)
GPGPU-Sim uArch: core: 13, cta: 1 initialized @(2,0)
GPGPU-Sim uArch: core: 14, cta: 1 initialized @(2,0)
GPGPU-Sim uArch: core:  0, cta: 1 initialized @(2,0)
GPGPU-Sim uArch: core:  1, cta: 2 initialized @(3,0)
GPGPU-Sim uArch: core:  2, cta: 2 initialized @(3,0)
GPGPU-Sim uArch: core:  3, cta: 2 initialized @(3,0)
GPGPU-Sim uArch: core:  4, cta: 2 initialized @(3,0)
GPGPU-Sim uArch: core:  5, cta: 2 initialized @(3,0)
GPGPU-Sim uArch: core:  6, cta: 2 initialized @(3,0)
GPGPU-Sim uArch: core:  7, cta: 2 initialized @(3,0)
GPGPU-Sim uArch: core:  8, cta: 2 initialized @(3,0)
GPGPU-Sim uArch: core:  9, cta: 2 initialized @(3,0)
GPGPU-Sim uArch: core: 10, cta: 2 initialized @(3,0)
GPGPU-Sim uArch: core: 11, cta: 2 initialized @(3,0)
GPGPU-Sim uArch: core: 12, cta: 2 initialized @(3,0)
GPGPU-Sim uArch: core: 13, cta: 2 initialized @(3,0)
GPGPU-Sim uArch: core: 14, cta: 2 initialized @(3,0)
GPGPU-Sim uArch: core:  0, cta: 2 initialized @(3,0)
GPGPU-Sim uArch: core:  1, cta: 3 initialized @(4,0)
GPGPU-Sim uArch: core:  2, cta: 3 initialized @(4,0)
GPGPU-Sim uArch: core:  3, cta: 3 initialized @(4,0)
GPGPU-Sim uArch: core:  4, cta: 3 initialized @(4,0)
GPGPU-Sim uArch: core:  5, cta: 3 initialized @(4,0)
GPGPU-Sim uArch: core:  6, cta: 3 initialized @(4,0)
GPGPU-Sim uArch: core:  7, cta: 3 initialized @(4,0)
GPGPU-Sim uArch: core:  8, cta: 3 initialized @(4,0)
GPGPU-Sim uArch: core:  9, cta: 3 initialized @(4,0)
GPGPU-Sim uArch: core: 10, cta: 3 initialized @(4,0)
GPGPU-Sim uArch: core: 11, cta: 3 initialized @(4,0)
GPGPU-Sim uArch: core: 12, cta: 3 initialized @(4,0)
GPGPU-Sim uArch: core: 13, cta: 3 initialized @(4,0)
GPGPU-Sim uArch: core: 14, cta: 3 initialized @(4,0)
GPGPU-Sim uArch: core:  0, cta: 3 initialized @(4,0)
GPGPU-Sim uArch: core:  1, cta: 4 initialized @(5,0)
GPGPU-Sim uArch: core:  2, cta: 4 initialized @(5,0)
GPGPU-Sim uArch: core:  3, cta: 4 initialized @(5,0)
GPGPU-Sim uArch: core:  4, cta: 4 initialized @(5,0)
GPGPU-Sim uArch: core:  5, cta: 4 initialized @(5,0)
GPGPU-Sim uArch: core:  6, cta: 4 initialized @(5,0)
GPGPU-Sim uArch: core:  7, cta: 4 initialized @(5,0)
GPGPU-Sim uArch: core:  8, cta: 4 initialized @(5,0)
GPGPU-Sim uArch: core:  9, cta: 4 initialized @(5,0)
GPGPU-Sim uArch: core: 10, cta: 4 initialized @(5,0)
GPGPU-Sim uArch: core: 11, cta: 4 initialized @(5,0)
GPGPU-Sim uArch: core: 12, cta: 4 initialized @(5,0)
GPGPU-Sim uArch: core: 13, cta: 4 initialized @(5,0)
GPGPU-Sim uArch: core: 14, cta: 4 initialized @(5,0)
GPGPU-Sim uArch: core:  0, cta: 4 initialized @(5,0)
GPGPU-Sim uArch: core:  1, cta: 5 initialized @(6,0)
GPGPU-Sim uArch: core:  2, cta: 5 initialized @(6,0)
GPGPU-Sim uArch: core:  3, cta: 5 initialized @(6,0)
GPGPU-Sim uArch: core:  4, cta: 5 initialized @(6,0)
GPGPU-Sim uArch: core:  5, cta: 5 initialized @(6,0)
GPGPU-Sim uArch: core:  6, cta: 5 initialized @(6,0)
GPGPU-Sim uArch: core:  7, cta: 5 initialized @(6,0)
GPGPU-Sim uArch: core:  8, cta: 5 initialized @(6,0)
GPGPU-Sim uArch: core:  9, cta: 5 initialized @(6,0)
GPGPU-Sim uArch: core: 10, cta: 5 initialized @(6,0)
GPGPU-Sim uArch: core: 11, cta: 5 initialized @(6,0)
GPGPU-Sim uArch: core: 12, cta: 5 initialized @(6,0)
GPGPU-Sim uArch: core: 13, cta: 5 initialized @(6,0)
GPGPU-Sim uArch: core: 14, cta: 5 initialized @(6,0)
GPGPU-Sim uArch: core:  0, cta: 5 initialized @(6,0)
GPGPU-Sim PTX: 100000 instructions simulated : ctaid=(7,0,0) tid=(31,0,0)
GPGPU-Sim uArch: cycles simulated: 500  inst.: 92160 (ipc=184.3) sim_rate=92160 (inst/sec) elapsed = 0:0:00:01 / Sun Feb 28 21:39:50 2016
GPGPU-Sim PTX: 200000 instructions simulated : ctaid=(28,0,0) tid=(191,0,0)
GPGPU-Sim uArch: cycles simulated: 1000  inst.: 248129 (ipc=248.1) sim_rate=124064 (inst/sec) elapsed = 0:0:00:02 / Sun Feb 28 21:39:51 2016
GPGPU-Sim PTX: 300000 instructions simulated : ctaid=(63,0,0) tid=(29,0,0)
GPGPU-Sim uArch: Shader 1 finished CTA #1 (1232,0), 5 CTAs running
GPGPU-Sim uArch: Shader 1 finished CTA #2 (1232,0), 4 CTAs running
GPGPU-Sim uArch: core:  1, cta: 1 initialized @(1233,0)
GPGPU-Sim uArch: core:  1, cta: 2 initialized @(1234,0)
GPGPU-Sim uArch: Shader 0 finished CTA #0 (1241,0), 5 CTAs running
GPGPU-Sim uArch: Shader 0 finished CTA #1 (1241,0), 4 CTAs running
GPGPU-Sim uArch: Shader 0 finished CTA #2 (1241,0), 3 CTAs running
GPGPU-Sim uArch: core:  0, cta: 0 initialized @(1242,0)
GPGPU-Sim uArch: core:  0, cta: 1 initialized @(1243,0)
GPGPU-Sim uArch: core:  0, cta: 2 initialized @(1244,0)
GPGPU-Sim uArch: Shader 4 finished CTA #0 (1248,0), 5 CTAs running
GPGPU-Sim uArch: Shader 4 finished CTA #1 (1248,0), 4 CTAs running
GPGPU-Sim uArch: core:  4, cta: 0 initialized @(1249,0)
GPGPU-Sim uArch: Shader 0 finished CTA #4 (1249,0), 5 CTAs running
GPGPU-Sim uArch: core:  0, cta: 4 initialized @(1250,0)
GPGPU-Sim uArch: core:  4, cta: 1 initialized @(1250,0)
GPGPU-Sim uArch: Shader 3 finished CTA #0 (1251,0), 5 CTAs running
GPGPU-Sim uArch: Shader 3 finished CTA #1 (1251,0), 4 CTAs running
GPGPU-Sim uArch: Shader 3 finished CTA #2 (1251,0), 3 CTAs running
GPGPU-Sim uArch: core:  3, cta: 0 initialized @(1252,0)
GPGPU-Sim uArch: core:  3, cta: 1 initialized @(1253,0)
GPGPU-Sim uArch: core:  3, cta: 2 initialized @(1254,0)
GPGPU-Sim uArch: Shader 5 finished CTA #0 (1258,0), 5 CTAs running
GPGPU-Sim uArch: Shader 5 finished CTA #1 (1258,0), 4 CTAs running
GPGPU-Sim uArch: Shader 5 finished CTA #2 (1258,0), 3 CTAs running
GPGPU-Sim uArch: core:  5, cta: 0 initialized @(1259,0)
GPGPU-Sim uArch: Shader 2 finished CTA #0 (1259,0), 5 CTAs running
GPGPU-Sim uArch: Shader 2 finished CTA #1 (1259,0), 4 CTAs running
GPGPU-Sim uArch: Shader 2 finished CTA #2 (1259,0), 3 CTAs running
GPGPU-Sim uArch: core:  2, cta: 0 initialized @(1260,0)
GPGPU-Sim uArch: core:  5, cta: 1 initialized @(1260,0)
GPGPU-Sim uArch: core:  2, cta: 1 initialized @(1261,0)
GPGPU-Sim uArch: core:  5, cta: 2 initialized @(1261,0)
GPGPU-Sim uArch: core:  2, cta: 2 initialized @(1262,0)
GPGPU-Sim uArch: Shader 1 finished CTA #3 (1262,0), 5 CTAs running
GPGPU-Sim uArch: Shader 1 finished CTA #4 (1262,0), 4 CTAs running
GPGPU-Sim uArch: Shader 1 finished CTA #5 (1262,0), 3 CTAs running
GPGPU-Sim uArch: core:  1, cta: 3 initialized @(1263,0)
GPGPU-Sim uArch: core:  1, cta: 4 initialized @(1264,0)
GPGPU-Sim uArch: Shader 6 finished CTA #3 (1264,0), 5 CTAs running
GPGPU-Sim uArch: core:  6, cta: 3 initialized @(1265,0)
GPGPU-Sim uArch: core:  1, cta: 5 initialized @(1265,0)
GPGPU-Sim uArch: Shader 7 finished CTA #0 (1271,0), 5 CTAs running
GPGPU-Sim uArch: Shader 7 finished CTA #1 (1271,0), 4 CTAs running
GPGPU-Sim uArch: core:  7, cta: 0 initialized @(1272,0)
GPGPU-Sim uArch: core:  7, cta: 1 initialized @(1273,0)
GPGPU-Sim uArch: Shader 7 finished CTA #3 (1274,0), 5 CTAs running
GPGPU-Sim uArch: core:  7, cta: 3 initialized @(1275,0)
GPGPU-Sim uArch: Shader 6 finished CTA #0 (1276,0), 5 CTAs running
GPGPU-Sim uArch: Shader 6 finished CTA #1 (1276,0), 4 CTAs running
GPGPU-Sim uArch: core:  6, cta: 0 initialized @(1277,0)
GPGPU-Sim uArch: core:  6, cta: 1 initialized @(1278,0)
GPGPU-Sim uArch: Shader 0 finished CTA #3 (1278,0), 5 CTAs running
GPGPU-Sim uArch: core:  0, cta: 3 initialized @(1279,0)
GPGPU-Sim uArch: Shader 3 finished CTA #3 (1280,0), 5 CTAs running
GPGPU-Sim uArch: Shader 3 finished CTA #4 (1280,0), 4 CTAs running
GPGPU-Sim uArch: Shader 3 finished CTA #5 (1280,0), 3 CTAs running
GPGPU-Sim uArch: Shader 4 finished CTA #2 (1280,0), 5 CTAs running
GPGPU-Sim uArch: Shader 4 finished CTA #3 (1280,0), 4 CTAs running
GPGPU-Sim uArch: Shader 4 finished CTA #4 (1280,0), 3 CTAs running
GPGPU-Sim uArch: Shader 4 finished CTA #5 (1280,0), 2 CTAs running
GPGPU-Sim uArch: Shader 8 finished CTA #0 (1280,0), 5 CTAs running
GPGPU-Sim uArch: Shader 8 finished CTA #1 (1280,0), 4 CTAs running
GPGPU-Sim uArch: core:  3, cta: 3 initialized @(1281,0)
GPGPU-Sim uArch: core:  4, cta: 2 initialized @(1281,0)
GPGPU-Sim uArch: core:  8, cta: 0 initialized @(1281,0)
GPGPU-Sim uArch: core:  3, cta: 4 initialized @(1282,0)
GPGPU-Sim uArch: core:  4, cta: 3 initialized @(1282,0)
GPGPU-Sim uArch: core:  8, cta: 1 initialized @(1282,0)
GPGPU-Sim uArch: core:  3, cta: 5 initialized @(1283,0)
GPGPU-Sim uArch: core:  4, cta: 4 initialized @(1283,0)
GPGPU-Sim uArch: core:  4, cta: 5 initialized @(1284,0)
GPGPU-Sim uArch: Shader 8 finished CTA #3 (1284,0), 5 CTAs running
GPGPU-Sim uArch: core:  8, cta: 3 initialized @(1285,0)
GPGPU-Sim uArch: Shader 0 finished CTA #5 (1286,0), 5 CTAs running
GPGPU-Sim uArch: core:  0, cta: 5 initialized @(1287,0)
GPGPU-Sim uArch: Shader 6 finished CTA #4 (1288,0), 5 CTAs running
GPGPU-Sim uArch: Shader 6 finished CTA #5 (1288,0), 4 CTAs running
GPGPU-Sim uArch: Shader 10 finished CTA #0 (1288,0), 5 CTAs running
GPGPU-Sim uArch: Shader 10 finished CTA #1 (1288,0), 4 CTAs running
GPGPU-Sim uArch: Shader 10 finished CTA #2 (1288,0), 3 CTAs running
GPGPU-Sim uArch: core:  6, cta: 4 initialized @(1289,0)
GPGPU-Sim uArch: core: 10, cta: 0 initialized @(1289,0)
GPGPU-Sim uArch: core:  6, cta: 5 initialized @(1290,0)
GPGPU-Sim uArch: core: 10, cta: 1 initialized @(1290,0)
GPGPU-Sim uArch: core: 10, cta: 2 initialized @(1291,0)
GPGPU-Sim uArch: Shader 9 finished CTA #0 (1291,0), 5 CTAs running
GPGPU-Sim uArch: Shader 9 finished CTA #1 (1291,0), 4 CTAs running
GPGPU-Sim uArch: Shader 9 finished CTA #2 (1291,0), 3 CTAs running
GPGPU-Sim uArch: core:  9, cta: 0 initialized @(1292,0)
GPGPU-Sim uArch: Shader 8 finished CTA #5 (1292,0), 5 CTAs running
GPGPU-Sim uArch: core:  8, cta: 5 initialized @(1293,0)
GPGPU-Sim uArch: core:  9, cta: 1 initialized @(1293,0)
GPGPU-Sim uArch: core:  9, cta: 2 initialized @(1294,0)
GPGPU-Sim uArch: Shader 5 finished CTA #3 (1294,0), 5 CTAs running
GPGPU-Sim uArch: Shader 5 finished CTA #4 (1294,0), 4 CTAs running
GPGPU-Sim uArch: Shader 5 finished CTA #5 (1294,0), 3 CTAs running
GPGPU-Sim uArch: core:  5, cta: 3 initialized @(1295,0)
GPGPU-Sim uArch: core:  5, cta: 4 initialized @(1296,0)
GPGPU-Sim uArch: Shader 10 finished CTA #4 (1296,0), 5 CTAs running
GPGPU-Sim uArch: core: 10, cta: 4 initialized @(1297,0)
GPGPU-Sim uArch: core:  5, cta: 5 initialized @(1297,0)
GPGPU-Sim uArch: Shader 2 finished CTA #3 (1298,0), 5 CTAs running
GPGPU-Sim uArch: Shader 2 finished CTA #4 (1298,0), 4 CTAs running
GPGPU-Sim uArch: Shader 2 finished CTA #5 (1298,0), 3 CTAs running
GPGPU-Sim uArch: Shader 9 finished CTA #4 (1298,0), 5 CTAs running
GPGPU-Sim uArch: Shader 9 finished CTA #5 (1298,0), 4 CTAs running
GPGPU-Sim uArch: Shader 11 finished CTA #0 (1298,0), 5 CTAs running
GPGPU-Sim uArch: Shader 11 finished CTA #1 (1298,0), 4 CTAs running
GPGPU-Sim uArch: Shader 11 finished CTA #2 (1298,0), 3 CTAs running
GPGPU-Sim uArch: core:  9, cta: 4 initialized @(1299,0)
GPGPU-Sim uArch: core: 11, cta: 0 initialized @(1299,0)
GPGPU-Sim uArch: core:  2, cta: 3 initialized @(1299,0)
GPGPU-Sim uArch: core:  9, cta: 5 initialized @(1300,0)
GPGPU-Sim uArch: core: 11, cta: 1 initialized @(1300,0)
GPGPU-Sim uArch: core:  2, cta: 4 initialized @(1300,0)
GPGPU-Sim uArch: core: 11, cta: 2 initialized @(1301,0)
GPGPU-Sim uArch: core:  2, cta: 5 initialized @(1301,0)
GPGPU-Sim uArch: Shader 7 finished CTA #2 (1302,0), 5 CTAs running
GPGPU-Sim uArch: core:  7, cta: 2 initialized @(1303,0)
GPGPU-Sim uArch: Shader 12 finished CTA #3 (1303,0), 5 CTAs running
GPGPU-Sim uArch: core: 12, cta: 3 initialized @(1304,0)
GPGPU-Sim uArch: Shader 6 finished CTA #2 (1304,0), 5 CTAs running
GPGPU-Sim uArch: core:  6, cta: 2 initialized @(1305,0)
GPGPU-Sim uArch: Shader 11 finished CTA #4 (1306,0), 5 CTAs running
GPGPU-Sim uArch: core: 11, cta: 4 initialized @(1307,0)
GPGPU-Sim uArch: Shader 8 finished CTA #2 (1308,0), 5 CTAs running
GPGPU-Sim uArch: core:  8, cta: 2 initialized @(1309,0)
GPGPU-Sim uArch: Shader 13 finished CTA #0 (1309,0), 5 CTAs running
GPGPU-Sim uArch: Shader 13 finished CTA #1 (1309,0), 4 CTAs running
GPGPU-Sim uArch: core: 13, cta: 0 initialized @(1310,0)
GPGPU-Sim uArch: Shader 7 finished CTA #4 (1310,0), 5 CTAs running
GPGPU-Sim uArch: Shader 7 finished CTA #5 (1310,0), 4 CTAs running
GPGPU-Sim uArch: core:  7, cta: 4 initialized @(1311,0)
GPGPU-Sim uArch: core: 13, cta: 1 initialized @(1311,0)
GPGPU-Sim uArch: core:  7, cta: 5 initialized @(1312,0)
GPGPU-Sim uArch: Shader 13 finished CTA #3 (1313,0), 5 CTAs running
GPGPU-Sim uArch: core: 13, cta: 3 initialized @(1314,0)
GPGPU-Sim uArch: Shader 12 finished CTA #0 (1315,0), 5 CTAs running
GPGPU-Sim uArch: Shader 12 finished CTA #1 (1315,0), 4 CTAs running
GPGPU-Sim uArch: core: 12, cta: 0 initialized @(1316,0)
GPGPU-Sim uArch: Shader 8 finished CTA #4 (1316,0), 5 CTAs running
GPGPU-Sim uArch: core:  8, cta: 4 initialized @(1317,0)
GPGPU-Sim uArch: core: 12, cta: 1 initialized @(1317,0)
GPGPU-Sim uArch: Shader 14 finished CTA #0 (1321,0), 5 CTAs running
GPGPU-Sim uArch: Shader 14 finished CTA #1 (1321,0), 4 CTAs running
GPGPU-Sim uArch: core: 14, cta: 0 initialized @(1322,0)
GPGPU-Sim uArch: Shader 9 finished CTA #3 (1322,0), 5 CTAs running
GPGPU-Sim uArch: core:  9, cta: 3 initialized @(1323,0)
GPGPU-Sim uArch: core: 14, cta: 1 initialized @(1323,0)
GPGPU-Sim uArch: Shader 12 finished CTA #4 (1324,0), 5 CTAs running
GPGPU-Sim uArch: Shader 12 finished CTA #5 (1324,0), 4 CTAs running
GPGPU-Sim uArch: core: 12, cta: 4 initialized @(1325,0)
GPGPU-Sim uArch: Shader 14 finished CTA #3 (1325,0), 5 CTAs running
GPGPU-Sim uArch: core: 14, cta: 3 initialized @(1326,0)
GPGPU-Sim uArch: core: 12, cta: 5 initialized @(1326,0)
GPGPU-Sim uArch: Shader 10 finished CTA #3 (1328,0), 5 CTAs running
GPGPU-Sim uArch: Shader 14 finished CTA #5 (1328,0), 5 CTAs running
GPGPU-Sim uArch: core: 14, cta: 5 initialized @(1329,0)
GPGPU-Sim uArch: core: 10, cta: 3 initialized @(1329,0)
GPGPU-Sim uArch: Shader 11 finished CTA #3 (1334,0), 5 CTAs running
GPGPU-Sim uArch: core: 11, cta: 3 initialized @(1335,0)
GPGPU-Sim uArch: Shader 10 finished CTA #5 (1336,0), 5 CTAs running
GPGPU-Sim uArch: core: 10, cta: 5 initialized @(1337,0)
GPGPU-Sim uArch: Shader 13 finished CTA #2 (1338,0), 5 CTAs running
GPGPU-Sim uArch: core: 13, cta: 2 initialized @(1339,0)
GPGPU-Sim uArch: Shader 12 finished CTA #2 (1340,0), 5 CTAs running
GPGPU-Sim uArch: core: 12, cta: 2 initialized @(1341,0)
GPGPU-Sim uArch: Shader 11 finished CTA #5 (1342,0), 5 CTAs running
GPGPU-Sim uArch: core: 11, cta: 5 initialized @(1343,0)
GPGPU-Sim uArch: Shader 14 finished CTA #2 (1344,0), 5 CTAs running
GPGPU-Sim uArch: core: 14, cta: 2 initialized @(1345,0)
GPGPU-Sim uArch: Shader 13 finished CTA #4 (1346,0), 5 CTAs running
GPGPU-Sim uArch: Shader 13 finished CTA #5 (1346,0), 4 CTAs running
GPGPU-Sim uArch: core: 13, cta: 4 initialized @(1347,0)
GPGPU-Sim uArch: core: 13, cta: 5 initialized @(1348,0)
GPGPU-Sim uArch: Shader 14 finished CTA #4 (1352,0), 5 CTAs running
GPGPU-Sim uArch: core: 14, cta: 4 initialized @(1353,0)
GPGPU-Sim PTX: 400000 instructions simulated : ctaid=(151,0,0) tid=(85,0,0)
GPGPU-Sim PTX: 500000 instructions simulated : ctaid=(101,0,0) tid=(181,0,0)
GPGPU-Sim PTX: 600000 instructions simulated : ctaid=(169,0,0) tid=(237,0,0)
GPGPU-Sim uArch: Shader 1 finished CTA #1 (1702,0), 5 CTAs running
GPGPU-Sim uArch: core:  1, cta: 1 initialized @(1703,0)
GPGPU-Sim uArch: Shader 1 finished CTA #2 (1716,0), 5 CTAs running
GPGPU-Sim uArch: core:  1, cta: 2 initialized @(1717,0)
GPGPU-Sim uArch: Shader 0 finished CTA #0 (1748,0), 5 CTAs running
GPGPU-Sim uArch: core:  0, cta: 0 initialized @(1749,0)
GPGPU-Sim uArch: Shader 3 finished CTA #0 (1754,0), 5 CTAs running
GPGPU-Sim uArch: core:  3, cta: 0 initialized @(1755,0)
GPGPU-Sim uArch: Shader 4 finished CTA #0 (1755,0), 5 CTAs running
GPGPU-Sim uArch: core:  4, cta: 0 initialized @(1756,0)
GPGPU-Sim uArch: Shader 0 finished CTA #1 (1766,0), 5 CTAs running
GPGPU-Sim uArch: core:  0, cta: 1 initialized @(1767,0)
GPGPU-Sim uArch: Shader 3 finished CTA #1 (1770,0), 5 CTAs running
GPGPU-Sim uArch: core:  3, cta: 1 initialized @(1771,0)
GPGPU-Sim uArch: Shader 2 finished CTA #1 (1774,0), 5 CTAs running
GPGPU-Sim uArch: core:  2, cta: 1 initialized @(1775,0)
GPGPU-Sim uArch: Shader 5 finished CTA #2 (1779,0), 5 CTAs running
GPGPU-Sim uArch: Shader 7 finished CTA #0 (1779,0), 5 CTAs running
GPGPU-Sim uArch: core:  5, cta: 2 initialized @(1780,0)
GPGPU-Sim uArch: core:  7, cta: 0 initialized @(1780,0)
GPGPU-Sim uArch: Shader 0 finished CTA #2 (1784,0), 5 CTAs running
GPGPU-Sim uArch: core:  0, cta: 2 initialized @(1785,0)
GPGPU-Sim uArch: Shader 5 finished CTA #0 (1791,0), 5 CTAs running
GPGPU-Sim uArch: core:  5, cta: 0 initialized @(1792,0)
GPGPU-Sim uArch: Shader 4 finished CTA #1 (1793,0), 5 CTAs running
GPGPU-Sim uArch: core:  4, cta: 1 initialized @(1794,0)
GPGPU-Sim uArch: Shader 2 finished CTA #0 (1795,0), 5 CTAs running
GPGPU-Sim uArch: core:  2, cta: 0 initialized @(1796,0)
GPGPU-Sim uArch: Shader 1 finished CTA #3 (1800,0), 5 CTAs running
GPGPU-Sim uArch: core:  1, cta: 3 initialized @(1801,0)
GPGPU-Sim uArch: Shader 8 finished CTA #1 (1805,0), 5 CTAs running
GPGPU-Sim uArch: core:  8, cta: 1 initialized @(1806,0)
GPGPU-Sim uArch: Shader 3 finished CTA #2 (1808,0), 5 CTAs running
GPGPU-Sim uArch: core:  3, cta: 2 initialized @(1809,0)
GPGPU-Sim uArch: Shader 10 finished CTA #0 (1811,0), 5 CTAs running
GPGPU-Sim uArch: core: 10, cta: 0 initialized @(1812,0)
GPGPU-Sim uArch: Shader 8 finished CTA #0 (1817,0), 5 CTAs running
GPGPU-Sim uArch: core:  8, cta: 0 initialized @(1818,0)
GPGPU-Sim uArch: Shader 2 finished CTA #2 (1820,0), 5 CTAs running
GPGPU-Sim uArch: Shader 10 finished CTA #1 (1820,0), 5 CTAs running
GPGPU-Sim uArch: core: 10, cta: 1 initialized @(1821,0)
GPGPU-Sim uArch: core:  2, cta: 2 initialized @(1821,0)
GPGPU-Sim uArch: Shader 7 finished CTA #1 (1827,0), 5 CTAs running
GPGPU-Sim uArch: Shader 11 finished CTA #0 (1827,0), 5 CTAs running
GPGPU-Sim uArch: core:  7, cta: 1 initialized @(1828,0)
GPGPU-Sim uArch: core: 11, cta: 0 initialized @(1828,0)
GPGPU-Sim uArch: Shader 9 finished CTA #1 (1829,0), 5 CTAs running
GPGPU-Sim uArch: core:  9, cta: 1 initialized @(1830,0)
GPGPU-Sim uArch: Shader 6 finished CTA #0 (1838,0), 5 CTAs running
GPGPU-Sim uArch: core:  6, cta: 0 initialized @(1839,0)
GPGPU-Sim uArch: Shader 6 finished CTA #3 (1840,0), 5 CTAs running
GPGPU-Sim uArch: core:  6, cta: 3 initialized @(1841,0)
GPGPU-Sim uArch: Shader 5 finished CTA #1 (1847,0), 5 CTAs running
GPGPU-Sim uArch: core:  5, cta: 1 initialized @(1848,0)
GPGPU-Sim uArch: Shader 9 finished CTA #0 (1856,0), 5 CTAs running
GPGPU-Sim uArch: core:  9, cta: 0 initialized @(1857,0)
GPGPU-Sim uArch: Shader 4 finished CTA #2 (1857,0), 5 CTAs running
GPGPU-Sim uArch: core:  4, cta: 2 initialized @(1858,0)
GPGPU-Sim uArch: Shader 13 finished CTA #0 (1866,0), 5 CTAs running
GPGPU-Sim uArch: core: 13, cta: 0 initialized @(1867,0)
GPGPU-Sim uArch: Shader 1 finished CTA #4 (1868,0), 5 CTAs running
GPGPU-Sim uArch: Shader 1 finished CTA #5 (1868,0), 4 CTAs running
GPGPU-Sim uArch: core:  1, cta: 4 initialized @(1869,0)
GPGPU-Sim uArch: core:  1, cta: 5 initialized @(1870,0)
GPGPU-Sim uArch: Shader 7 finished CTA #3 (1871,0), 5 CTAs running
GPGPU-Sim uArch: core:  7, cta: 3 initialized @(1872,0)
GPGPU-Sim uArch: Shader 12 finished CTA #0 (1873,0), 5 CTAs running
GPGPU-Sim PTX: 700000 instructions simulated : ctaid=(166,0,0) tid=(45,0,0)
GPGPU-Sim uArch: core: 12, cta: 0 initialized @(1874,0)
GPGPU-Sim uArch: Shader 0 finished CTA #4 (1874,0), 5 CTAs running
GPGPU-Sim uArch: core:  0, cta: 4 initialized @(1875,0)
GPGPU-Sim uArch: Shader 3 finished CTA #3 (1875,0), 5 CTAs running
GPGPU-Sim uArch: core:  3, cta: 3 initialized @(1876,0)
GPGPU-Sim uArch: Shader 8 finished CTA #3 (1877,0), 5 CTAs running
GPGPU-Sim uArch: core:  8, cta: 3 initialized @(1878,0)
GPGPU-Sim uArch: Shader 11 finished CTA #2 (1888,0), 5 CTAs running
GPGPU-Sim uArch: Shader 11 finished CTA #4 (1888,0), 4 CTAs running
GPGPU-Sim uArch: core: 11, cta: 2 initialized @(1889,0)
GPGPU-Sim uArch: core: 11, cta: 4 initialized @(1890,0)
GPGPU-Sim uArch: Shader 4 finished CTA #3 (1891,0), 5 CTAs running
GPGPU-Sim uArch: Shader 9 finished CTA #2 (1891,0), 5 CTAs running
GPGPU-Sim uArch: Shader 9 finished CTA #4 (1891,0), 4 CTAs running
GPGPU-Sim uArch: core:  4, cta: 3 initialized @(1892,0)
GPGPU-Sim uArch: core:  9, cta: 2 initialized @(1892,0)
GPGPU-Sim uArch: core:  9, cta: 4 initialized @(1893,0)
GPGPU-Sim uArch: Shader 14 finished CTA #3 (1905,0), 5 CTAs running
GPGPU-Sim uArch: core: 14, cta: 3 initialized @(1906,0)
GPGPU-Sim uArch: Shader 10 finished CTA #2 (1907,0), 5 CTAs running
GPGPU-Sim uArch: core: 10, cta: 2 initialized @(1908,0)
GPGPU-Sim uArch: Shader 14 finished CTA #1 (1913,0), 5 CTAs running
GPGPU-Sim uArch: core: 14, cta: 1 initialized @(1914,0)
GPGPU-Sim uArch: Shader 6 finished CTA #1 (1916,0), 5 CTAs running
GPGPU-Sim uArch: core:  6, cta: 1 initialized @(1917,0)
GPGPU-Sim uArch: Shader 3 finished CTA #4 (1919,0), 5 CTAs running
GPGPU-Sim uArch: Shader 5 finished CTA #3 (1919,0), 5 CTAs running
GPGPU-Sim uArch: core:  3, cta: 4 initialized @(1920,0)
GPGPU-Sim uArch: core:  5, cta: 3 initialized @(1920,0)
GPGPU-Sim uArch: Shader 13 finished CTA #3 (1920,0), 5 CTAs running
GPGPU-Sim uArch: core: 13, cta: 3 initialized @(1921,0)
GPGPU-Sim uArch: Shader 12 finished CTA #3 (1922,0), 5 CTAs running
GPGPU-Sim uArch: Shader 12 finished CTA #4 (1922,0), 4 CTAs running
GPGPU-Sim uArch: core: 12, cta: 3 initialized @(1923,0)
GPGPU-Sim uArch: core: 12, cta: 4 initialized @(1924,0)
GPGPU-Sim uArch: Shader 11 finished CTA #1 (1927,0), 5 CTAs running
GPGPU-Sim uArch: core: 11, cta: 1 initialized @(1928,0)
GPGPU-Sim uArch: Shader 6 finished CTA #5 (1932,0), 5 CTAs running
GPGPU-Sim uArch: core:  6, cta: 5 initialized @(1933,0)
GPGPU-Sim uArch: Shader 13 finished CTA #1 (1934,0), 5 CTAs running
GPGPU-Sim uArch: core: 13, cta: 1 initialized @(1935,0)
GPGPU-Sim uArch: Shader 0 finished CTA #3 (1950,0), 5 CTAs running
GPGPU-Sim uArch: core:  0, cta: 3 initialized @(1951,0)
GPGPU-Sim uArch: Shader 10 finished CTA #4 (1956,0), 5 CTAs running
GPGPU-Sim uArch: core: 10, cta: 4 initialized @(1957,0)
GPGPU-Sim uArch: Shader 0 finished CTA #5 (1958,0), 5 CTAs running
GPGPU-Sim uArch: core:  0, cta: 5 initialized @(1959,0)
GPGPU-Sim uArch: Shader 6 finished CTA #4 (1964,0), 5 CTAs running
GPGPU-Sim uArch: core:  6, cta: 4 initialized @(1965,0)
GPGPU-Sim uArch: Shader 4 finished CTA #4 (1968,0), 5 CTAs running
GPGPU-Sim uArch: Shader 4 finished CTA #5 (1968,0), 4 CTAs running
GPGPU-Sim uArch: core:  4, cta: 4 initialized @(1969,0)
GPGPU-Sim uArch: core:  4, cta: 5 initialized @(1970,0)
GPGPU-Sim uArch: Shader 7 finished CTA #2 (1970,0), 5 CTAs running
GPGPU-Sim uArch: Shader 14 finished CTA #0 (1970,0), 5 CTAs running
GPGPU-Sim uArch: core:  7, cta: 2 initialized @(1971,0)
GPGPU-Sim uArch: core: 14, cta: 0 initialized @(1971,0)
GPGPU-Sim uArch: Shader 2 finished CTA #3 (1974,0), 5 CTAs running
GPGPU-Sim uArch: Shader 2 finished CTA #4 (1974,0), 4 CTAs running
GPGPU-Sim uArch: Shader 2 finished CTA #5 (1974,0), 3 CTAs running
GPGPU-Sim uArch: core:  2, cta: 3 initialized @(1975,0)
GPGPU-Sim uArch: core:  2, cta: 4 initialized @(1976,0)
GPGPU-Sim uArch: core:  2, cta: 5 initialized @(1977,0)
GPGPU-Sim uArch: Shader 8 finished CTA #5 (1980,0), 5 CTAs running
GPGPU-Sim uArch: Shader 13 finished CTA #2 (1980,0), 5 CTAs running
GPGPU-Sim uArch: core:  8, cta: 5 initialized @(1981,0)
GPGPU-Sim uArch: core: 13, cta: 2 initialized @(1981,0)
GPGPU-Sim uArch: Shader 8 finished CTA #2 (1988,0), 5 CTAs running
GPGPU-Sim uArch: core:  8, cta: 2 initialized @(1989,0)
GPGPU-Sim uArch: Shader 8 finished CTA #4 (1996,0), 5 CTAs running
GPGPU-Sim PTX: 800000 instructions simulated : ctaid=(227,0,0) tid=(235,0,0)
GPGPU-Sim uArch: core:  8, cta: 4 initialized @(1997,0)
GPGPU-Sim uArch: Shader 14 finished CTA #5 (1998,0), 5 CTAs running
GPGPU-Sim uArch: core: 14, cta: 5 initialized @(1999,0)
GPGPU-Sim uArch: Shader 5 finished CTA #5 (1999,0), 5 CTAs running
GPGPU-Sim uArch: core:  5, cta: 5 initialized @(2000,0)
GPGPU-Sim uArch: cycles simulated: 2000  inst.: 736881 (ipc=368.4) sim_rate=245627 (inst/sec) elapsed = 0:0:00:03 / Sun Feb 28 21:39:52 2016
GPGPU-Sim uArch: Shader 3 finished CTA #5 (2005,0), 5 CTAs running
GPGPU-Sim uArch: core:  3, cta: 5 initialized @(2006,0)
GPGPU-Sim uArch: Shader 7 finished CTA #5 (2011,0), 5 CTAs running
GPGPU-Sim uArch: core:  7, cta: 5 initialized @(2012,0)
GPGPU-Sim uArch: Shader 10 finished CTA #3 (2012,0), 5 CTAs running
GPGPU-Sim uArch: core: 10, cta: 3 initialized @(2013,0)
GPGPU-Sim uArch: Shader 10 finished CTA #5 (2020,0), 5 CTAs running
GPGPU-Sim uArch: core: 10, cta: 5 initialized @(2021,0)
GPGPU-Sim uArch: Shader 5 finished CTA #4 (2021,0), 5 CTAs running
GPGPU-Sim uArch: core:  5, cta: 4 initialized @(2022,0)
GPGPU-Sim uArch: Shader 11 finished CTA #3 (2022,0), 5 CTAs running
GPGPU-Sim uArch: core: 11, cta: 3 initialized @(2023,0)
GPGPU-Sim uArch: Shader 14 finished CTA #4 (2026,0), 5 CTAs running
GPGPU-Sim uArch: Shader 7 finished CTA #4 (2027,0), 5 CTAs running
GPGPU-Sim uArch: Shader 13 finished CTA #4 (2028,0), 5 CTAs running
GPGPU-Sim uArch: Shader 13 finished CTA #5 (2028,0), 4 CTAs running
GPGPU-Sim uArch: Shader 6 finished CTA #2 (2032,0), 5 CTAs running
GPGPU-Sim uArch: Shader 9 finished CTA #5 (2032,0), 5 CTAs running
GPGPU-Sim uArch: Shader 12 finished CTA #1 (2041,0), 5 CTAs running
GPGPU-Sim uArch: Shader 9 finished CTA #3 (2048,0), 4 CTAs running
GPGPU-Sim uArch: Shader 14 finished CTA #2 (2050,0), 4 CTAs running
GPGPU-Sim uArch: Shader 12 finished CTA #5 (2060,0), 4 CTAs running
GPGPU-Sim uArch: Shader 12 finished CTA #2 (2060,0), 3 CTAs running
GPGPU-Sim uArch: Shader 11 finished CTA #5 (2062,0), 5 CTAs running
GPGPU-Sim uArch: Shader 1 finished CTA #1 (2092,0), 5 CTAs running
GPGPU-Sim PTX: 900000 instructions simulated : ctaid=(188,0,0) tid=(107,0,0)
GPGPU-Sim uArch: Shader 1 finished CTA #2 (2163,0), 4 CTAs running
GPGPU-Sim uArch: Shader 7 finished CTA #0 (2163,0), 4 CTAs running
GPGPU-Sim uArch: Shader 0 finished CTA #0 (2181,0), 5 CTAs running
GPGPU-Sim uArch: Shader 4 finished CTA #0 (2181,0), 5 CTAs running
GPGPU-Sim uArch: Shader 3 finished CTA #0 (2185,0), 5 CTAs running
GPGPU-Sim uArch: Shader 2 finished CTA #1 (2193,0), 5 CTAs running
GPGPU-Sim uArch: Shader 5 finished CTA #2 (2205,0), 5 CTAs running
GPGPU-Sim uArch: Shader 10 finished CTA #0 (2228,0), 5 CTAs running
GPGPU-Sim uArch: Shader 7 finished CTA #1 (2231,0), 3 CTAs running
GPGPU-Sim uArch: Shader 8 finished CTA #1 (2231,0), 5 CTAs running
GPGPU-Sim uArch: Shader 3 finished CTA #1 (2239,0), 4 CTAs running
GPGPU-Sim uArch: Shader 11 finished CTA #0 (2254,0), 4 CTAs running
GPGPU-Sim uArch: Shader 9 finished CTA #1 (2263,0), 3 CTAs running
GPGPU-Sim uArch: Shader 0 finished CTA #1 (2264,0), 4 CTAs running
GPGPU-Sim uArch: Shader 4 finished CTA #1 (2264,0), 4 CTAs running
GPGPU-Sim uArch: Shader 1 finished CTA #3 (2267,0), 3 CTAs running
GPGPU-Sim uArch: Shader 2 finished CTA #0 (2268,0), 4 CTAs running
GPGPU-Sim uArch: Shader 5 finished CTA #0 (2269,0), 4 CTAs running
GPGPU-Sim uArch: Shader 0 finished CTA #2 (2273,0), 3 CTAs running
GPGPU-Sim uArch: Shader 12 finished CTA #0 (2288,0), 2 CTAs running
GPGPU-Sim uArch: Shader 10 finished CTA #1 (2292,0), 4 CTAs running
GPGPU-Sim uArch: Shader 1 finished CTA #4 (2302,0), 2 CTAs running
GPGPU-Sim uArch: Shader 8 finished CTA #0 (2305,0), 4 CTAs running
GPGPU-Sim uArch: Shader 3 finished CTA #2 (2306,0), 3 CTAs running
GPGPU-Sim uArch: Shader 2 finished CTA #2 (2308,0), 3 CTAs running
GPGPU-Sim uArch: Shader 1 finished CTA #5 (2322,0), 1 CTAs running
GPGPU-Sim uArch: Shader 13 finished CTA #0 (2322,0), 3 CTAs running
GPGPU-Sim uArch: Shader 6 finished CTA #0 (2324,0), 4 CTAs running
GPGPU-Sim uArch: Shader 5 finished CTA #1 (2332,0), 3 CTAs running
GPGPU-Sim uArch: Shader 7 finished CTA #3 (2336,0), 2 CTAs running
GPGPU-Sim uArch: Shader 6 finished CTA #3 (2337,0), 3 CTAs running
GPGPU-Sim uArch: Shader 4 finished CTA #2 (2343,0), 3 CTAs running
GPGPU-Sim uArch: Shader 9 finished CTA #0 (2351,0), 2 CTAs running
GPGPU-Sim uArch: Shader 3 finished CTA #3 (2366,0), 2 CTAs running
GPGPU-Sim uArch: Shader 0 finished CTA #4 (2371,0), 2 CTAs running
GPGPU-Sim uArch: Shader 11 finished CTA #2 (2380,0), 3 CTAs running
GPGPU-Sim uArch: Shader 9 finished CTA #2 (2382,0), 1 CTAs running
GPGPU-Sim uArch: Shader 4 finished CTA #3 (2383,0), 2 CTAs running
GPGPU-Sim uArch: Shader 14 finished CTA #3 (2384,0), 3 CTAs running
GPGPU-Sim uArch: Shader 11 finished CTA #4 (2387,0), 2 CTAs running
GPGPU-Sim uArch: Shader 8 finished CTA #3 (2390,0), 3 CTAs running
GPGPU-Sim uArch: Shader 9 finished CTA #4 (2396,0), 0 CTAs running
GPGPU-Sim uArch: Shader 9 empty (release kernel 1 '_Z6KernelP4NodePiPbS2_S1_S2_i').
GPGPU-Sim uArch: Shader 10 finished CTA #2 (2396,0), 3 CTAs running
GPGPU-Sim uArch: Shader 7 finished CTA #2 (2404,0), 1 CTAs running
GPGPU-Sim uArch: Shader 3 finished CTA #4 (2406,0), 1 CTAs running
GPGPU-Sim uArch: Shader 12 finished CTA #3 (2407,0), 1 CTAs running
GPGPU-Sim uArch: Shader 14 finished CTA #1 (2410,0), 2 CTAs running
GPGPU-Sim uArch: Shader 5 finished CTA #3 (2413,0), 2 CTAs running
GPGPU-Sim uArch: Shader 0 finished CTA #3 (2420,0), 1 CTAs running
GPGPU-Sim uArch: Shader 12 finished CTA #4 (2423,0), 0 CTAs running
GPGPU-Sim uArch: Shader 12 empty (release kernel 1 '_Z6KernelP4NodePiPbS2_S1_S2_i').
GPGPU-Sim uArch: Shader 13 finished CTA #1 (2430,0), 2 CTAs running
GPGPU-Sim uArch: Shader 6 finished CTA #1 (2439,0), 2 CTAs running
GPGPU-Sim uArch: Shader 3 finished CTA #5 (2440,0), 0 CTAs running
GPGPU-Sim uArch: Shader 3 empty (release kernel 1 '_Z6KernelP4NodePiPbS2_S1_S2_i').
GPGPU-Sim uArch: Shader 11 finished CTA #1 (2440,0), 1 CTAs running
GPGPU-Sim uArch: Shader 6 finished CTA #5 (2447,0), 1 CTAs running
GPGPU-Sim uArch: Shader 2 finished CTA #4 (2458,0), 2 CTAs running
GPGPU-Sim uArch: Shader 8 finished CTA #5 (2459,0), 2 CTAs running
GPGPU-Sim uArch: Shader 2 finished CTA #3 (2466,0), 1 CTAs running
GPGPU-Sim uArch: Shader 6 finished CTA #4 (2466,0), 0 CTAs running
GPGPU-Sim uArch: Shader 6 empty (release kernel 1 '_Z6KernelP4NodePiPbS2_S1_S2_i').
GPGPU-Sim uArch: Shader 4 finished CTA #5 (2470,0), 1 CTAs running
GPGPU-Sim uArch: Shader 4 finished CTA #4 (2471,0), 0 CTAs running
GPGPU-Sim uArch: Shader 4 empty (release kernel 1 '_Z6KernelP4NodePiPbS2_S1_S2_i').
GPGPU-Sim uArch: Shader 13 finished CTA #3 (2471,0), 1 CTAs running
GPGPU-Sim uArch: Shader 0 finished CTA #5 (2473,0), 0 CTAs running
GPGPU-Sim uArch: Shader 0 empty (release kernel 1 '_Z6KernelP4NodePiPbS2_S1_S2_i').
GPGPU-Sim uArch: Shader 5 finished CTA #5 (2475,0), 1 CTAs running
GPGPU-Sim uArch: Shader 10 finished CTA #4 (2475,0), 2 CTAs running
GPGPU-Sim uArch: Shader 2 finished CTA #5 (2477,0), 0 CTAs running
GPGPU-Sim uArch: Shader 2 empty (release kernel 1 '_Z6KernelP4NodePiPbS2_S1_S2_i').
GPGPU-Sim uArch: Shader 7 finished CTA #5 (2486,0), 0 CTAs running
GPGPU-Sim uArch: Shader 7 empty (release kernel 1 '_Z6KernelP4NodePiPbS2_S1_S2_i').
GPGPU-Sim uArch: Shader 5 finished CTA #4 (2488,0), 0 CTAs running
GPGPU-Sim uArch: Shader 5 empty (release kernel 1 '_Z6KernelP4NodePiPbS2_S1_S2_i').
GPGPU-Sim uArch: Shader 11 finished CTA #3 (2490,0), 0 CTAs running
GPGPU-Sim uArch: Shader 11 empty (release kernel 1 '_Z6KernelP4NodePiPbS2_S1_S2_i').
GPGPU-Sim uArch: Shader 14 finished CTA #0 (2491,0), 1 CTAs running
GPGPU-Sim uArch: Shader 8 finished CTA #4 (2493,0), 1 CTAs running
GPGPU-Sim uArch: Shader 14 finished CTA #5 (2495,0), 0 CTAs running
GPGPU-Sim uArch: Shader 14 empty (release kernel 1 '_Z6KernelP4NodePiPbS2_S1_S2_i').
GPGPU-Sim uArch: Shader 13 finished CTA #2 (2497,0), 0 CTAs running
GPGPU-Sim uArch: Shader 13 empty (release kernel 1 '_Z6KernelP4NodePiPbS2_S1_S2_i').
GPGPU-Sim uArch: Shader 8 finished CTA #2 (2506,0), 0 CTAs running
GPGPU-Sim uArch: Shader 8 empty (release kernel 1 '_Z6KernelP4NodePiPbS2_S1_S2_i').
GPGPU-Sim uArch: Shader 10 finished CTA #5 (2510,0), 1 CTAs running
GPGPU-Sim uArch: Shader 10 finished CTA #3 (2519,0), 0 CTAs running
GPGPU-Sim uArch: Shader 10 empty (release kernel 1 '_Z6KernelP4NodePiPbS2_S1_S2_i').
GPGPU-Sim uArch: cycles simulated: 4500  inst.: 917626 (ipc=203.9) sim_rate=229406 (inst/sec) elapsed = 0:0:00:04 / Sun Feb 28 21:39:53 2016
GPGPU-Sim uArch: Shader 1 finished CTA #0 (5909,0), 0 CTAs running
GPGPU-Sim uArch: Shader 1 empty (release kernel 1 '_Z6KernelP4NodePiPbS2_S1_S2_i').
GPGPU-Sim uArch: GPU detected kernel '_Z6KernelP4NodePiPbS2_S1_S2_i' finished on shader 1.
kernel_name = _Z6KernelP4NodePiPbS2_S1_S2_i 
kernel_launch_uid = 1 
gpu_sim_cycle = 5910
gpu_sim_insn = 917736
gpu_ipc =     155.2853
gpu_tot_sim_cycle = 5910
gpu_tot_sim_insn = 917736
gpu_tot_ipc =     155.2853
gpu_tot_issued_cta = 256
gpu_stall_dramfull = 272
gpu_stall_icnt2sh    = 835
gpu_total_sim_rate=229434

========= Core cache stats =========
L1I_cache:
	L1I_total_cache_accesses = 18559
	L1I_total_cache_misses = 962
	L1I_total_cache_miss_rate = 0.0518
	L1I_total_cache_pending_hits = 0
	L1I_total_cache_reservation_fails = 5484
L1D_cache:
	L1D_cache_core[0]: Access = 144, Miss = 36, Miss_rate = 0.250, Pending_hits = 108, Reservation_fails = 0
	L1D_cache_core[1]: Access = 196, Miss = 68, Miss_rate = 0.347, Pending_hits = 96, Reservation_fails = 0
	L1D_cache_core[2]: Access = 144, Miss = 36, Miss_rate = 0.250, Pending_hits = 108, Reservation_fails = 0
	L1D_cache_core[3]: Access = 144, Miss = 36, Miss_rate = 0.250, Pending_hits = 108, Reservation_fails = 0
	L1D_cache_core[4]: Access = 144, Miss = 36, Miss_rate = 0.250, Pending_hits = 108, Reservation_fails = 0
	L1D_cache_core[5]: Access = 144, Miss = 36, Miss_rate = 0.250, Pending_hits = 108, Reservation_fails = 0
	L1D_cache_core[6]: Access = 136, Miss = 34, Miss_rate = 0.250, Pending_hits = 102, Reservation_fails = 0
	L1D_cache_core[7]: Access = 136, Miss = 34, Miss_rate = 0.250, Pending_hits = 102, Reservation_fails = 0
	L1D_cache_core[8]: Access = 144, Miss = 36, Miss_rate = 0.250, Pending_hits = 108, Reservation_fails = 0
	L1D_cache_core[9]: Access = 128, Miss = 32, Miss_rate = 0.250, Pending_hits = 96, Reservation_fails = 0
	L1D_cache_core[10]: Access = 144, Miss = 36, Miss_rate = 0.250, Pending_hits = 108, Reservation_fails = 0
	L1D_cache_core[11]: Access = 136, Miss = 34, Miss_rate = 0.250, Pending_hits = 102, Reservation_fails = 0
	L1D_cache_core[12]: Access = 120, Miss = 30, Miss_rate = 0.250, Pending_hits = 90, Reservation_fails = 0
	L1D_cache_core[13]: Access = 128, Miss = 32, Miss_rate = 0.250, Pending_hits = 96, Reservation_fails = 0
	L1D_cache_core[14]: Access = 128, Miss = 32, Miss_rate = 0.250, Pending_hits = 96, Reservation_fails = 0
	L1D_total_cache_accesses = 2116
	L1D_total_cache_misses = 548
	L1D_total_cache_miss_rate = 0.2590
	L1D_total_cache_pending_hits = 1536
	L1D_total_cache_reservation_fails = 0
	L1D_cache_data_port_util = 0.001
	L1D_cache_fill_port_util = 0.013
L1C_cache:
	L1C_total_cache_accesses = 4115
	L1C_total_cache_misses = 480
	L1C_total_cache_miss_rate = 0.1166
	L1C_total_cache_pending_hits = 0
	L1C_total_cache_reservation_fails = 2887
L1T_cache:
	L1T_total_cache_accesses = 0
	L1T_total_cache_misses = 0
	L1T_total_cache_pending_hits = 0
	L1T_total_cache_reservation_fails = 0

Total_core_cache_stats:
	Total_core_cache_stats_breakdown[GLOBAL_ACC_R][HIT] = 31
	Total_core_cache_stats_breakdown[GLOBAL_ACC_R][HIT_RESERVED] = 1536
	Total_core_cache_stats_breakdown[GLOBAL_ACC_R][MISS] = 523
	Total_core_cache_stats_breakdown[CONST_ACC_R][HIT] = 3635
	Total_core_cache_stats_breakdown[CONST_ACC_R][MISS] = 480
	Total_core_cache_stats_breakdown[CONST_ACC_R][RESERVATION_FAIL] = 2887
	Total_core_cache_stats_breakdown[GLOBAL_ACC_W][HIT] = 1
	Total_core_cache_stats_breakdown[GLOBAL_ACC_W][MISS] = 25
	Total_core_cache_stats_breakdown[INST_ACC_R][HIT] = 17597
	Total_core_cache_stats_breakdown[INST_ACC_R][MISS] = 962
	Total_core_cache_stats_breakdown[INST_ACC_R][RESERVATION_FAIL] = 5484
Shader 0 warp_id issue ditsribution:
warp_id:
0, 1, 2, 3, 4, 5, 6, 7, 8, 9, 10, 11, 12, 13, 14, 15, 16, 17, 18, 19, 20, 21, 22, 23, 24, 25, 26, 27, 28, 29, 30, 31, 32, 33, 34, 35, 36, 37, 38, 39, 40, 41, 42, 43, 44, 45, 46, 47, 
distro:
45, 45, 45, 45, 45, 45, 45, 45, 45, 45, 45, 45, 45, 45, 45, 45, 45, 45, 45, 45, 45, 45, 45, 45, 45, 45, 45, 45, 45, 45, 45, 45, 45, 45, 45, 45, 45, 45, 45, 45, 45, 45, 45, 45, 45, 45, 45, 45, 
gpgpu_n_tot_thrd_icount = 990816
gpgpu_n_tot_w_icount = 30963
gpgpu_n_stall_shd_mem = 2887
gpgpu_n_mem_read_local = 0
gpgpu_n_mem_write_local = 0
gpgpu_n_mem_read_global = 523
gpgpu_n_mem_write_global = 26
gpgpu_n_mem_texture = 0
gpgpu_n_mem_const = 15
gpgpu_n_load_insn  = 65578
gpgpu_n_store_insn = 26
gpgpu_n_shmem_insn = 0
gpgpu_n_tex_insn = 0
gpgpu_n_const_mem_insn = 0
gpgpu_n_param_mem_insn = 131091
gpgpu_n_shmem_bkconflict = 0
gpgpu_n_cache_bkconflict = 0
gpgpu_n_intrawarp_mshr_merge = 0
gpgpu_n_cmem_portconflict = 2887
gpgpu_stall_shd_mem[c_mem][bk_conf] = 2887
gpgpu_stall_shd_mem[c_mem][mshr_rc] = 0
gpgpu_stall_shd_mem[c_mem][icnt_rc] = 0
gpgpu_stall_shd_mem[c_mem][data_port_stall] = 0
gpgpu_stall_shd_mem[t_mem][mshr_rc] = 0
gpgpu_stall_shd_mem[t_mem][icnt_rc] = 0
gpgpu_stall_shd_mem[t_mem][data_port_stall] = 0
gpgpu_stall_shd_mem[s_mem][bk_conf] = 0
gpgpu_stall_shd_mem[gl_mem][bk_conf] = 0
gpgpu_stall_shd_mem[gl_mem][coal_stall] = 0
gpgpu_stall_shd_mem[gl_mem][data_port_stall] = 0
gpgpu_stall_shd_mem[g_mem_ld][mshr_rc] = 0
gpgpu_stall_shd_mem[g_mem_ld][icnt_rc] = 0
gpgpu_stall_shd_mem[g_mem_ld][wb_icnt_rc] = 0
gpgpu_stall_shd_mem[g_mem_ld][wb_rsrv_fail] = 0
gpgpu_stall_shd_mem[g_mem_st][mshr_rc] = 0
gpgpu_stall_shd_mem[g_mem_st][icnt_rc] = 0
gpgpu_stall_shd_mem[g_mem_st][wb_icnt_rc] = 0
gpgpu_stall_shd_mem[g_mem_st][wb_rsrv_fail] = 0
gpgpu_stall_shd_mem[l_mem_ld][mshr_rc] = 0
gpgpu_stall_shd_mem[l_mem_ld][icnt_rc] = 0
gpgpu_stall_shd_mem[l_mem_ld][wb_icnt_rc] = 0
gpgpu_stall_shd_mem[l_mem_ld][wb_rsrv_fail] = 0
gpgpu_stall_shd_mem[l_mem_st][mshr_rc] = 0
gpgpu_stall_shd_mem[l_mem_st][icnt_rc] = 0
gpgpu_stall_shd_mem[l_mem_ld][wb_icnt_rc] = 0
gpgpu_stall_shd_mem[l_mem_ld][wb_rsrv_fail] = 0
gpu_reg_bank_conflict_stalls = 0
Warp Occupancy Distribution:
Stall:6540	W0_Idle:15504	W0_Scoreboard:28095	W1:243	W2:0	W3:0	W4:0	W5:0	W6:0	W7:0	W8:0	W9:0	W10:0	W11:0	W12:0	W13:0	W14:0	W15:0	W16:0	W17:0	W18:0	W19:0	W20:0	W21:0	W22:0	W23:0	W24:0	W25:0	W26:0	W27:0	W28:0	W29:0	W30:0	W31:0	W32:30720
traffic_breakdown_coretomem[CONST_ACC_R] = 120 {8:15,}
traffic_breakdown_coretomem[GLOBAL_ACC_R] = 4184 {8:523,}
traffic_breakdown_coretomem[GLOBAL_ACC_W] = 1040 {40:26,}
traffic_breakdown_coretomem[INST_ACC_R] = 256 {8:32,}
traffic_breakdown_memtocore[CONST_ACC_R] = 1080 {72:15,}
traffic_breakdown_memtocore[GLOBAL_ACC_R] = 71128 {136:523,}
traffic_breakdown_memtocore[GLOBAL_ACC_W] = 208 {8:26,}
traffic_breakdown_memtocore[INST_ACC_R] = 4352 {136:32,}
maxmrqlatency = 131 
maxdqlatency = 0 
maxmflatency = 403 
averagemflatency = 291 
max_icnt2mem_latency = 36 
max_icnt2sh_latency = 5909 
mrq_lat_table:193 	38 	45 	45 	66 	89 	71 	1 	0 	0 	0 	0 	0 	0 	0 	0 	0 	0 	0 	0 	0 	0 	0 	0 	0 	0 	0 	0 	0 	0 	0 	0 	
dq_lat_table:0 	0 	0 	0 	0 	0 	0 	0 	0 	0 	0 	0 	0 	0 	0 	0 	0 	0 	0 	0 	0 	0 	0 	0 	0 	0 	0 	0 	0 	0 	0 	0 	
mf_lat_table:0 	0 	0 	0 	0 	0 	0 	31 	533 	0 	0 	0 	0 	0 	0 	0 	0 	0 	0 	0 	0 	0 	0 	0 	0 	0 	0 	0 	0 	0 	0 	0 	
icnt2mem_lat_table:0 	0 	0 	579 	14 	3 	0 	0 	0 	0 	0 	0 	0 	0 	0 	0 	0 	0 	0 	0 	0 	0 	0 	0 	
icnt2sh_lat_table:0 	0 	0 	229 	301 	8 	0 	0 	0 	0 	2 	9 	15 	0 	0 	0 	0 	0 	0 	0 	0 	0 	0 	0 	
mf_lat_pw_table:0 	0 	0 	0 	0 	0 	0 	6 	4 	0 	0 	0 	0 	0 	0 	0 	0 	0 	0 	0 	0 	0 	0 	0 	0 	0 	0 	0 	0 	0 	0 	0 	
maximum concurrent accesses to same row:
dram[0]:         3         0         0         0         0         0        32        32         0         0         0        10         0         0         0         0 
dram[1]:         0         0         0         0         0        12         0         0         0         0         0        10         0         0         0         0 
dram[2]:         0         0         0         0        10         0         0         0         0         0         2         0         0         0         0         0 
maximum service time to same row:
dram[0]:      2740         0         0         0       879       887      4961      4125      1760      1735      2356      2334         0         0         0         0 
dram[1]:         0         0         0      3851       885      1247       941       932      1726      1744      2337      3158      4332      5138      3924      3116 
dram[2]:         0         0      4259         0      2157       897       941       932      1732      1726      1482      2326         0      5547         0         0 
average row accesses per activate:
dram[0]:  4.000000      -nan      -nan      -nan 10.000000 10.000000 17.000000 17.000000 32.000000 32.000000 12.000000  6.000000      -nan      -nan      -nan      -nan 
dram[1]:       inf      -nan      -nan  2.000000 10.000000  5.666667 32.000000 32.000000 32.000000 32.000000 14.000000  6.000000  2.000000  1.000000  1.000000  1.000000 
dram[2]:      -nan      -nan  2.000000      -nan  6.000000 12.000000 32.000000 32.000000 32.000000 32.000000  4.333333 10.000000      -nan  1.000000      -nan      -nan 
average row locality = 548/41 = 13.365853
number of total memory accesses made:
dram[0]:         0         0         0         0         0         0         0         0         0         0         0         0         0         0         0         0 
dram[1]:         0         0         0         0         0         0         0         0         0         0         0         0         0         0         0         0 
dram[2]:         0         0         0         0         0         0         0         0         0         0         0         0         0         0         0         0 
total accesses: 0
min_bank_accesses = 0!
min_chip_accesses = 0!
number of total read accesses:
dram[0]:         4         0         0         0        10        10        33        33        32        32        12        11         0         0         0         0 
dram[1]:         2         0         0         1        10        15        32        32        32        32        14        11         2         1         1         1 
dram[2]:         0         0         1         0        11        12        32        32        32        32        12        10         0         1         0         0 
total reads: 538
min_bank_accesses = 0!
chip skew: 186/175 = 1.06
number of total write accesses:
dram[0]:         0         0         0         0         0         0         1         1         0         0         0         1         0         0         0         0 
dram[1]:         0         0         0         1         0         2         0         0         0         0         0         1         0         0         0         0 
dram[2]:         0         0         1         0         1         0         0         0         0         0         1         0         0         0         0         0 
total reads: 10
min_bank_accesses = 0!
chip skew: 4/3 = 1.33
average mf latency per bank:
dram[0]:        983    none      none      none         271       292       278       340       291       302       293       281    none      none      none      none  
dram[1]:          0    none      none         126       267       323       302       340       276       299       273       270       263       268       268       268
dram[2]:     none      none         126    none         242       304       300       339       282       289       249       284    none         268    none      none  
maximum mf latency per bank:
dram[0]:        277         0         0         0       290       304       317       388       336       371       293       330         0         0         0         0
dram[1]:          0         0         0       252       274       314       321       403       310       362       290       306       268       268       268       268
dram[2]:          0         0       252         0       270       313       321       394       318       348       281       308         0       268         0         0

Number of Memory Banks Accessed per Memory Operation per Warp (from 0):
0	0	0	0	0	0	0	0	0	0	0	0	0	0	0	0	0	0	0	0	0	0	0	0	0	0	0	0	0	0	0	0	0	0	0	0	0	0	0	0	0	0	0	0	0	0	0	0	
Average # of Memory Banks Accessed per Memory Operation per Warp=-nan

position of mrq chosen
0	0	0	0	0	0	0	0	0	0	0	0	0	0	0	0	

average position of mrq chosen = -nan
Memory Partition 0: 
Cache L2_bank_000:
MSHR contents
MSHR: tag=0x80234400, atomic=0 1 entries : 0x7f887be0c010 :  mf: uid= 33171, sid01:w00, part=0, addr=0x80234440, load , size=32, unknown  status = IN_PARTITION_DRAM (5907), 

Cache L2_bank_001:
MSHR contents

In Dram Latency Queue (total = 0): 
DRAM[0]: 16 bks, busW=4 BL=8 CL=12, tRRD=2 tCCD=6, tRCD=12 tRAS=28 tRP=12 tRC=40
n_cmd=7800 n_nop=7426 n_act=13 n_pre=4 n_req=180 n_rd=354 n_write=3 bw_util=0.09154
n_activity=1377 dram_eff=0.5185
bk0: 8a 7747i bk1: 0a 7799i bk2: 0a 7801i bk3: 0a 7803i bk4: 20a 7734i bk5: 20a 7686i bk6: 66a 7502i bk7: 66a 7337i bk8: 64a 7604i bk9: 64a 7466i bk10: 24a 7714i bk11: 22a 7617i bk12: 0a 7793i bk13: 0a 7794i bk14: 0a 7796i bk15: 0a 7799i 
dram_util_bins: 0 0 0 0 0 0 0 0 0 0
dram_eff_bins: 0 0 0 0 0 0 0 0 0 0
mrqq: max=16 avg=0.744872
Memory Partition 1: 
Cache L2_bank_002:
MSHR contents

Cache L2_bank_003:
MSHR contents

In Dram Latency Queue (total = 0): 
DRAM[1]: 16 bks, busW=4 BL=8 CL=12, tRRD=2 tCCD=6, tRCD=12 tRAS=28 tRP=12 tRC=40
n_cmd=7800 n_nop=7404 n_act=17 n_pre=3 n_req=190 n_rd=372 n_write=4 bw_util=0.09641
n_activity=1556 dram_eff=0.4833
bk0: 4a 7772i bk1: 0a 7800i bk2: 0a 7801i bk3: 2a 7780i bk4: 20a 7727i bk5: 30a 7582i bk6: 64a 7526i bk7: 64a 7364i bk8: 64a 7582i bk9: 64a 7464i bk10: 28a 7710i bk11: 22a 7607i bk12: 4a 7778i bk13: 2a 7781i bk14: 2a 7780i bk15: 2a 7781i 
dram_util_bins: 0 0 0 0 0 0 0 0 0 0
dram_eff_bins: 0 0 0 0 0 0 0 0 0 0
mrqq: max=16 avg=0.761282
Memory Partition 2: 
Cache L2_bank_004:
MSHR contents

Cache L2_bank_005:
MSHR contents

In Dram Latency Queue (total = 0): 
DRAM[2]: 16 bks, busW=4 BL=8 CL=12, tRRD=2 tCCD=6, tRCD=12 tRAS=28 tRP=12 tRC=40
n_cmd=7800 n_nop=7431 n_act=13 n_pre=3 n_req=178 n_rd=350 n_write=3 bw_util=0.09051
n_activity=1307 dram_eff=0.5402
bk0: 0a 7800i bk1: 0a 7801i bk2: 2a 7780i bk3: 0a 7802i bk4: 22a 7688i bk5: 24a 7660i bk6: 64a 7517i bk7: 64a 7344i bk8: 64a 7603i bk9: 64a 7448i bk10: 24a 7666i bk11: 20a 7652i bk12: 0a 7794i bk13: 2a 7780i bk14: 0a 7797i bk15: 0a 7800i 
dram_util_bins: 0 0 0 0 0 0 0 0 0 0
dram_eff_bins: 0 0 0 0 0 0 0 0 0 0
mrqq: max=16 avg=0.687949

========= L2 cache stats =========
L2_cache_bank[0]: Access = 121, Miss = 91, Miss_rate = 0.752, Pending_hits = 6, Reservation_fails = 206
L2_cache_bank[1]: Access = 91, Miss = 86, Miss_rate = 0.945, Pending_hits = 0, Reservation_fails = 0
L2_cache_bank[2]: Access = 108, Miss = 93, Miss_rate = 0.861, Pending_hits = 3, Reservation_fails = 112
L2_cache_bank[3]: Access = 101, Miss = 93, Miss_rate = 0.921, Pending_hits = 0, Reservation_fails = 0
L2_cache_bank[4]: Access = 88, Miss = 88, Miss_rate = 1.000, Pending_hits = 0, Reservation_fails = 0
L2_cache_bank[5]: Access = 87, Miss = 87, Miss_rate = 1.000, Pending_hits = 0, Reservation_fails = 0
L2_total_cache_accesses = 596
L2_total_cache_misses = 538
L2_total_cache_miss_rate = 0.9027
L2_total_cache_pending_hits = 9
L2_total_cache_reservation_fails = 318
L2_total_cache_breakdown:
	L2_cache_stats_breakdown[GLOBAL_ACC_R][MISS] = 523
	L2_cache_stats_breakdown[CONST_ACC_R][HIT] = 11
	L2_cache_stats_breakdown[CONST_ACC_R][HIT_RESERVED] = 3
	L2_cache_stats_breakdown[CONST_ACC_R][MISS] = 1
	L2_cache_stats_breakdown[CONST_ACC_R][RESERVATION_FAIL] = 90
	L2_cache_stats_breakdown[GLOBAL_ACC_W][HIT] = 16
	L2_cache_stats_breakdown[GLOBAL_ACC_W][MISS] = 10
	L2_cache_stats_breakdown[INST_ACC_R][HIT] = 22
	L2_cache_stats_breakdown[INST_ACC_R][HIT_RESERVED] = 6
	L2_cache_stats_breakdown[INST_ACC_R][MISS] = 4
	L2_cache_stats_breakdown[INST_ACC_R][RESERVATION_FAIL] = 228
L2_cache_data_port_util = 0.004
L2_cache_fill_port_util = 0.061

icnt_total_pkts_mem_to_simt=2846
icnt_total_pkts_simt_to_mem=622
LD_mem_lat_dist  0 0 0 0 0 0 0 0 0 0 0 0 0 0 0 0 0 0 0 0 0 0 0 0 0 0 0
ST_mem_lat_dist  0 0 0 0 0 0 0 0 0 0 0 0 0 0 0 0 0 0 0 0 0 0 0 0 0 0 0
----------------------------Interconnect-DETAILS--------------------------------
Class 0:
Packet latency average = 11.0898
	minimum = 6
	maximum = 34
Network latency average = 9.94631
	minimum = 6
	maximum = 34
Slowest packet = 14
Flit latency average = 8.75692
	minimum = 6
	maximum = 34
Slowest flit = 14
Fragmentation average = 0
	minimum = 0
	maximum = 0
Injected packet rate average = 0.00747008
	minimum = 0 (at node 21)
	maximum = 0.0204738 (at node 15)
Accepted packet rate average = 0.00747008
	minimum = 0 (at node 21)
	maximum = 0.0204738 (at node 15)
Injected flit rate average = 0.0217334
	minimum = 0 (at node 21)
	maximum = 0.0952623 (at node 15)
Accepted flit rate average= 0.0217334
	minimum = 0 (at node 21)
	maximum = 0.0446701 (at node 1)
Injected packet length average = 2.9094
Accepted packet length average = 2.9094
Total in-flight flits = 0 (0 measured)
====== Overall Traffic Statistics ======
====== Traffic class 0 ======
Packet latency average = 11.0898 (1 samples)
	minimum = 6 (1 samples)
	maximum = 34 (1 samples)
Network latency average = 9.94631 (1 samples)
	minimum = 6 (1 samples)
	maximum = 34 (1 samples)
Flit latency average = 8.75692 (1 samples)
	minimum = 6 (1 samples)
	maximum = 34 (1 samples)
Fragmentation average = 0 (1 samples)
	minimum = 0 (1 samples)
	maximum = 0 (1 samples)
Injected packet rate average = 0.00747008 (1 samples)
	minimum = 0 (1 samples)
	maximum = 0.0204738 (1 samples)
Accepted packet rate average = 0.00747008 (1 samples)
	minimum = 0 (1 samples)
	maximum = 0.0204738 (1 samples)
Injected flit rate average = 0.0217334 (1 samples)
	minimum = 0 (1 samples)
	maximum = 0.0952623 (1 samples)
Accepted flit rate average = 0.0217334 (1 samples)
	minimum = 0 (1 samples)
	maximum = 0.0446701 (1 samples)
Injected packet size average = 2.9094 (1 samples)
Accepted packet size average = 2.9094 (1 samples)
Hops average = 1 (1 samples)
----------------------------END-of-Interconnect-DETAILS-------------------------


gpgpu_simulation_time = 0 days, 0 hrs, 0 min, 4 sec (4 sec)
gpgpu_simulation_rate = 229434 (inst/sec)
gpgpu_simulation_rate = 1477 (cycle/sec)
GPGPU-Sim: synchronize waiting for inactive GPU simulation
GPGPU-Sim API: Stream Manager State
GPGPU-Sim: detected inactive GPU simulation thread

GPGPU-Sim PTX: cudaLaunch for 0x0x405636 (mode=performance simulation) on stream 0
GPGPU-Sim PTX: pushing kernel '_Z6KernelP4NodePiPbS2_S1_S2_i' to stream 0, gridDim= (256,1,1) blockDim = (256,1,1) 
kernel '_Z6KernelP4NodePiPbS2_S1_S2_i' transfer to GPU hardware scheduler
GPGPU-Sim uArch: Shader 12 bind to kernel 2 '_Z6KernelP4NodePiPbS2_S1_S2_i'
GPGPU-Sim uArch: core: 12, cta: 0 initialized @(1,5910)
GPGPU-Sim uArch: Shader 13 bind to kernel 2 '_Z6KernelP4NodePiPbS2_S1_S2_i'
GPGPU-Sim uArch: core: 13, cta: 0 initialized @(1,5910)
GPGPU-Sim uArch: Shader 14 bind to kernel 2 '_Z6KernelP4NodePiPbS2_S1_S2_i'
GPGPU-Sim uArch: core: 14, cta: 0 initialized @(1,5910)
GPGPU-Sim uArch: Shader 0 bind to kernel 2 '_Z6KernelP4NodePiPbS2_S1_S2_i'
GPGPU-Sim uArch: core:  0, cta: 0 initialized @(1,5910)
GPGPU-Sim uArch: Shader 1 bind to kernel 2 '_Z6KernelP4NodePiPbS2_S1_S2_i'
GPGPU-Sim uArch: core:  1, cta: 0 initialized @(1,5910)
GPGPU-Sim uArch: Shader 2 bind to kernel 2 '_Z6KernelP4NodePiPbS2_S1_S2_i'
GPGPU-Sim uArch: core:  2, cta: 0 initialized @(1,5910)
GPGPU-Sim uArch: Shader 3 bind to kernel 2 '_Z6KernelP4NodePiPbS2_S1_S2_i'
GPGPU-Sim uArch: core:  3, cta: 0 initialized @(1,5910)
GPGPU-Sim uArch: Shader 4 bind to kernel 2 '_Z6KernelP4NodePiPbS2_S1_S2_i'
GPGPU-Sim uArch: core:  4, cta: 0 initialized @(1,5910)
GPGPU-Sim uArch: Shader 5 bind to kernel 2 '_Z6KernelP4NodePiPbS2_S1_S2_i'
GPGPU-Sim uArch: core:  5, cta: 0 initialized @(1,5910)
GPGPU-Sim uArch: Shader 6 bind to kernel 2 '_Z6KernelP4NodePiPbS2_S1_S2_i'
GPGPU-Sim uArch: core:  6, cta: 0 initialized @(1,5910)
GPGPU-Sim uArch: Shader 7 bind to kernel 2 '_Z6KernelP4NodePiPbS2_S1_S2_i'
GPGPU-Sim uArch: core:  7, cta: 0 initialized @(1,5910)
GPGPU-Sim uArch: Shader 8 bind to kernel 2 '_Z6KernelP4NodePiPbS2_S1_S2_i'
GPGPU-Sim uArch: core:  8, cta: 0 initialized @(1,5910)
GPGPU-Sim uArch: Shader 9 bind to kernel 2 '_Z6KernelP4NodePiPbS2_S1_S2_i'
GPGPU-Sim uArch: core:  9, cta: 0 initialized @(1,5910)
GPGPU-Sim uArch: Shader 10 bind to kernel 2 '_Z6KernelP4NodePiPbS2_S1_S2_i'
GPGPU-Sim uArch: core: 10, cta: 0 initialized @(1,5910)
GPGPU-Sim uArch: Shader 11 bind to kernel 2 '_Z6KernelP4NodePiPbS2_S1_S2_i'
GPGPU-Sim uArch: core: 11, cta: 0 initialized @(1,5910)
GPGPU-Sim uArch: core: 12, cta: 1 initialized @(2,5910)
GPGPU-Sim uArch: core: 13, cta: 1 initialized @(2,5910)
GPGPU-Sim uArch: core: 14, cta: 1 initialized @(2,5910)
GPGPU-Sim uArch: core:  0, cta: 1 initialized @(2,5910)
GPGPU-Sim uArch: core:  1, cta: 1 initialized @(2,5910)
GPGPU-Sim uArch: core:  2, cta: 1 initialized @(2,5910)
GPGPU-Sim uArch: core:  3, cta: 1 initialized @(2,5910)
GPGPU-Sim uArch: core:  4, cta: 1 initialized @(2,5910)
GPGPU-Sim uArch: core:  5, cta: 1 initialized @(2,5910)
GPGPU-Sim uArch: core:  6, cta: 1 initialized @(2,5910)
GPGPU-Sim uArch: core:  7, cta: 1 initialized @(2,5910)
GPGPU-Sim uArch: core:  8, cta: 1 initialized @(2,5910)
GPGPU-Sim uArch: core:  9, cta: 1 initialized @(2,5910)
GPGPU-Sim uArch: core: 10, cta: 1 initialized @(2,5910)
GPGPU-Sim uArch: core: 11, cta: 1 initialized @(2,5910)
GPGPU-Sim uArch: core: 12, cta: 2 initialized @(3,5910)
GPGPU-Sim uArch: core: 13, cta: 2 initialized @(3,5910)
GPGPU-Sim uArch: core: 14, cta: 2 initialized @(3,5910)
GPGPU-Sim uArch: core:  0, cta: 2 initialized @(3,5910)
GPGPU-Sim uArch: core:  1, cta: 2 initialized @(3,5910)
GPGPU-Sim uArch: core:  2, cta: 2 initialized @(3,5910)
GPGPU-Sim uArch: core:  3, cta: 2 initialized @(3,5910)
GPGPU-Sim uArch: core:  4, cta: 2 initialized @(3,5910)
GPGPU-Sim uArch: core:  5, cta: 2 initialized @(3,5910)
GPGPU-Sim uArch: core:  6, cta: 2 initialized @(3,5910)
GPGPU-Sim uArch: core:  7, cta: 2 initialized @(3,5910)
GPGPU-Sim uArch: core:  8, cta: 2 initialized @(3,5910)
GPGPU-Sim uArch: core:  9, cta: 2 initialized @(3,5910)
GPGPU-Sim uArch: core: 10, cta: 2 initialized @(3,5910)
GPGPU-Sim uArch: core: 11, cta: 2 initialized @(3,5910)
GPGPU-Sim uArch: core: 12, cta: 3 initialized @(4,5910)
GPGPU-Sim uArch: core: 13, cta: 3 initialized @(4,5910)
GPGPU-Sim uArch: core: 14, cta: 3 initialized @(4,5910)
GPGPU-Sim uArch: core:  0, cta: 3 initialized @(4,5910)
GPGPU-Sim uArch: core:  1, cta: 3 initialized @(4,5910)
GPGPU-Sim uArch: core:  2, cta: 3 initialized @(4,5910)
GPGPU-Sim uArch: core:  3, cta: 3 initialized @(4,5910)
GPGPU-Sim uArch: core:  4, cta: 3 initialized @(4,5910)
GPGPU-Sim uArch: core:  5, cta: 3 initialized @(4,5910)
GPGPU-Sim uArch: core:  6, cta: 3 initialized @(4,5910)
GPGPU-Sim uArch: core:  7, cta: 3 initialized @(4,5910)
GPGPU-Sim uArch: core:  8, cta: 3 initialized @(4,5910)
GPGPU-Sim uArch: core:  9, cta: 3 initialized @(4,5910)
GPGPU-Sim uArch: core: 10, cta: 3 initialized @(4,5910)
GPGPU-Sim uArch: core: 11, cta: 3 initialized @(4,5910)
GPGPU-Sim uArch: core: 12, cta: 4 initialized @(5,5910)
GPGPU-Sim uArch: core: 13, cta: 4 initialized @(5,5910)
GPGPU-Sim uArch: core: 14, cta: 4 initialized @(5,5910)
GPGPU-Sim uArch: core:  0, cta: 4 initialized @(5,5910)
GPGPU-Sim uArch: core:  1, cta: 4 initialized @(5,5910)
GPGPU-Sim uArch: core:  2, cta: 4 initialized @(5,5910)
GPGPU-Sim uArch: core:  3, cta: 4 initialized @(5,5910)
GPGPU-Sim uArch: core:  4, cta: 4 initialized @(5,5910)
GPGPU-Sim uArch: core:  5, cta: 4 initialized @(5,5910)
GPGPU-Sim uArch: core:  6, cta: 4 initialized @(5,5910)
GPGPU-Sim uArch: core:  7, cta: 4 initialized @(5,5910)
GPGPU-Sim uArch: core:  8, cta: 4 initialized @(5,5910)
GPGPU-Sim uArch: core:  9, cta: 4 initialized @(5,5910)
GPGPU-Sim uArch: core: 10, cta: 4 initialized @(5,5910)
GPGPU-Sim uArch: core: 11, cta: 4 initialized @(5,5910)
GPGPU-Sim uArch: core: 12, cta: 5 initialized @(6,5910)
GPGPU-Sim uArch: core: 13, cta: 5 initialized @(6,5910)
GPGPU-Sim uArch: core: 14, cta: 5 initialized @(6,5910)
GPGPU-Sim uArch: core:  0, cta: 5 initialized @(6,5910)
GPGPU-Sim uArch: core:  1, cta: 5 initialized @(6,5910)
GPGPU-Sim uArch: core:  2, cta: 5 initialized @(6,5910)
GPGPU-Sim uArch: core:  3, cta: 5 initialized @(6,5910)
GPGPU-Sim uArch: core:  4, cta: 5 initialized @(6,5910)
GPGPU-Sim uArch: core:  5, cta: 5 initialized @(6,5910)
GPGPU-Sim uArch: core:  6, cta: 5 initialized @(6,5910)
GPGPU-Sim uArch: core:  7, cta: 5 initialized @(6,5910)
GPGPU-Sim uArch: core:  8, cta: 5 initialized @(6,5910)
GPGPU-Sim uArch: core:  9, cta: 5 initialized @(6,5910)
GPGPU-Sim uArch: core: 10, cta: 5 initialized @(6,5910)
GPGPU-Sim uArch: core: 11, cta: 5 initialized @(6,5910)
GPGPU-Sim PTX: 1000000 instructions simulated : ctaid=(39,0,0) tid=(140,0,0)
GPGPU-Sim PTX: 1100000 instructions simulated : ctaid=(22,0,0) tid=(204,0,0)
GPGPU-Sim PTX: 1200000 instructions simulated : ctaid=(57,0,0) tid=(108,0,0)
GPGPU-Sim uArch: Shader 1 finished CTA #0 (365,5910), 5 CTAs running
GPGPU-Sim uArch: core:  1, cta: 0 initialized @(366,5910)
GPGPU-Sim uArch: Shader 2 finished CTA #0 (376,5910), 5 CTAs running
[...]
GPGPU-Sim uArch: Shader 13 finished CTA #5 (1437,1100604), 0 CTAs running
GPGPU-Sim uArch: Shader 13 empty (release kernel 9 '_Z6KernelP4NodePiPbS2_S1_S2_i').
GPGPU-Sim uArch: GPU detected kernel '_Z6KernelP4NodePiPbS2_S1_S2_i' finished on shader 13.
kernel_name = _Z6KernelP4NodePiPbS2_S1_S2_i 
kernel_launch_uid = 9 
gpu_sim_cycle = 1438
gpu_sim_insn = 917504
gpu_ipc =     638.0417
gpu_tot_sim_cycle = 1102042
gpu_tot_sim_insn = 16821893
gpu_tot_ipc =      15.2643
gpu_tot_issued_cta = 2304
gpu_stall_dramfull = 2011690
gpu_stall_icnt2sh    = 3574386
gpu_total_sim_rate=28224

========= Core cache stats =========
L1I_cache:
	L1I_total_cache_accesses = 939713
	L1I_total_cache_misses = 998
	L1I_total_cache_miss_rate = 0.0011
	L1I_total_cache_pending_hits = 0
	L1I_total_cache_reservation_fails = 5484
L1D_cache:
	L1D_cache_core[0]: Access = 83705, Miss = 69241, Miss_rate = 0.827, Pending_hits = 4691, Reservation_fails = 947866
	L1D_cache_core[1]: Access = 82976, Miss = 68588, Miss_rate = 0.827, Pending_hits = 4620, Reservation_fails = 935619
	L1D_cache_core[2]: Access = 81263, Miss = 67553, Miss_rate = 0.831, Pending_hits = 4680, Reservation_fails = 930184
	L1D_cache_core[3]: Access = 81171, Miss = 67140, Miss_rate = 0.827, Pending_hits = 4561, Reservation_fails = 932528
	L1D_cache_core[4]: Access = 83771, Miss = 69537, Miss_rate = 0.830, Pending_hits = 4693, Reservation_fails = 945458
	L1D_cache_core[5]: Access = 82661, Miss = 68313, Miss_rate = 0.826, Pending_hits = 4654, Reservation_fails = 939753
	L1D_cache_core[6]: Access = 79999, Miss = 66070, Miss_rate = 0.826, Pending_hits = 4574, Reservation_fails = 920511
	L1D_cache_core[7]: Access = 81670, Miss = 67128, Miss_rate = 0.822, Pending_hits = 4575, Reservation_fails = 926749
	L1D_cache_core[8]: Access = 80655, Miss = 66700, Miss_rate = 0.827, Pending_hits = 4569, Reservation_fails = 927416
	L1D_cache_core[9]: Access = 82140, Miss = 68145, Miss_rate = 0.830, Pending_hits = 4682, Reservation_fails = 935129
	L1D_cache_core[10]: Access = 85712, Miss = 70745, Miss_rate = 0.825, Pending_hits = 4929, Reservation_fails = 947591
	L1D_cache_core[11]: Access = 80740, Miss = 66704, Miss_rate = 0.826, Pending_hits = 4573, Reservation_fails = 919629
	L1D_cache_core[12]: Access = 82631, Miss = 68189, Miss_rate = 0.825, Pending_hits = 4615, Reservation_fails = 932677
	L1D_cache_core[13]: Access = 84799, Miss = 69840, Miss_rate = 0.824, Pending_hits = 4598, Reservation_fails = 948161
	L1D_cache_core[14]: Access = 85144, Miss = 70516, Miss_rate = 0.828, Pending_hits = 4780, Reservation_fails = 950651
	L1D_total_cache_accesses = 1239037
	L1D_total_cache_misses = 1024409
	L1D_total_cache_miss_rate = 0.8268
	L1D_total_cache_pending_hits = 69794
	L1D_total_cache_reservation_fails = 14039922
	L1D_cache_data_port_util = 0.009
	L1D_cache_fill_port_util = 0.038
L1C_cache:
	L1C_total_cache_accesses = 135935
	L1C_total_cache_misses = 480
	L1C_total_cache_miss_rate = 0.0035
	L1C_total_cache_pending_hits = 0
	L1C_total_cache_reservation_fails = 2887
L1T_cache:
	L1T_total_cache_accesses = 0
	L1T_total_cache_misses = 0
	L1T_total_cache_pending_hits = 0
	L1T_total_cache_reservation_fails = 0

Total_core_cache_stats:
	Total_core_cache_stats_breakdown[GLOBAL_ACC_R][HIT] = 141646
	Total_core_cache_stats_breakdown[GLOBAL_ACC_R][HIT_RESERVED] = 69586
	Total_core_cache_stats_breakdown[GLOBAL_ACC_R][MISS] = 613561
	Total_core_cache_stats_breakdown[GLOBAL_ACC_R][RESERVATION_FAIL] = 9788723
	Total_core_cache_stats_breakdown[CONST_ACC_R][HIT] = 135455
	Total_core_cache_stats_breakdown[CONST_ACC_R][MISS] = 480
	Total_core_cache_stats_breakdown[CONST_ACC_R][RESERVATION_FAIL] = 2887
	Total_core_cache_stats_breakdown[GLOBAL_ACC_W][HIT] = 3188
	Total_core_cache_stats_breakdown[GLOBAL_ACC_W][HIT_RESERVED] = 208
	Total_core_cache_stats_breakdown[GLOBAL_ACC_W][MISS] = 410848
	Total_core_cache_stats_breakdown[GLOBAL_ACC_W][RESERVATION_FAIL] = 4251199
	Total_core_cache_stats_breakdown[INST_ACC_R][HIT] = 938715
	Total_core_cache_stats_breakdown[INST_ACC_R][MISS] = 998
	Total_core_cache_stats_breakdown[INST_ACC_R][RESERVATION_FAIL] = 5484
Shader 0 warp_id issue ditsribution:
warp_id:
0, 1, 2, 3, 4, 5, 6, 7, 8, 9, 10, 11, 12, 13, 14, 15, 16, 17, 18, 19, 20, 21, 22, 23, 24, 25, 26, 27, 28, 29, 30, 31, 32, 33, 34, 35, 36, 37, 38, 39, 40, 41, 42, 43, 44, 45, 46, 47, 
distro:
2493, 3211, 2589, 2338, 2441, 2434, 2590, 2277, 2761, 2768, 2819, 2443, 2309, 2382, 2927, 2604, 2311, 2380, 2287, 2624, 2249, 1807, 2535, 2261, 2194, 2380, 2720, 2921, 2834, 2761, 2527, 2393, 2205, 2139, 2630, 2396, 2196, 2153, 2314, 2188, 1789, 1951, 2234, 1936, 1838, 2261, 2062, 2276, 
gpgpu_n_tot_thrd_icount = 54962144
gpgpu_n_tot_w_icount = 1717567
gpgpu_n_stall_shd_mem = 14881338
gpgpu_n_mem_read_local = 0
gpgpu_n_mem_write_local = 0
gpgpu_n_mem_read_global = 613561
gpgpu_n_mem_write_global = 414244
gpgpu_n_mem_texture = 0
gpgpu_n_mem_const = 15
gpgpu_n_load_insn  = 2100977
gpgpu_n_store_insn = 680883
gpgpu_n_shmem_insn = 0
gpgpu_n_tex_insn = 0
gpgpu_n_const_mem_insn = 0
gpgpu_n_param_mem_insn = 1748100
gpgpu_n_shmem_bkconflict = 0
gpgpu_n_cache_bkconflict = 0
gpgpu_n_intrawarp_mshr_merge = 0
gpgpu_n_cmem_portconflict = 2887
gpgpu_stall_shd_mem[c_mem][bk_conf] = 2887
gpgpu_stall_shd_mem[c_mem][mshr_rc] = 0
gpgpu_stall_shd_mem[c_mem][icnt_rc] = 0
gpgpu_stall_shd_mem[c_mem][data_port_stall] = 0
gpgpu_stall_shd_mem[t_mem][mshr_rc] = 0
gpgpu_stall_shd_mem[t_mem][icnt_rc] = 0
gpgpu_stall_shd_mem[t_mem][data_port_stall] = 0
gpgpu_stall_shd_mem[s_mem][bk_conf] = 0
gpgpu_stall_shd_mem[gl_mem][bk_conf] = 0
gpgpu_stall_shd_mem[gl_mem][coal_stall] = 14878451
gpgpu_stall_shd_mem[gl_mem][data_port_stall] = 0
gpgpu_stall_shd_mem[g_mem_ld][mshr_rc] = 0
gpgpu_stall_shd_mem[g_mem_ld][icnt_rc] = 0
gpgpu_stall_shd_mem[g_mem_ld][wb_icnt_rc] = 0
gpgpu_stall_shd_mem[g_mem_ld][wb_rsrv_fail] = 0
gpgpu_stall_shd_mem[g_mem_st][mshr_rc] = 0
gpgpu_stall_shd_mem[g_mem_st][icnt_rc] = 0
gpgpu_stall_shd_mem[g_mem_st][wb_icnt_rc] = 0
gpgpu_stall_shd_mem[g_mem_st][wb_rsrv_fail] = 0
gpgpu_stall_shd_mem[l_mem_ld][mshr_rc] = 0
gpgpu_stall_shd_mem[l_mem_ld][icnt_rc] = 0
gpgpu_stall_shd_mem[l_mem_ld][wb_icnt_rc] = 0
gpgpu_stall_shd_mem[l_mem_ld][wb_rsrv_fail] = 0
gpgpu_stall_shd_mem[l_mem_st][mshr_rc] = 0
gpgpu_stall_shd_mem[l_mem_st][icnt_rc] = 0
gpgpu_stall_shd_mem[l_mem_ld][wb_icnt_rc] = 0
gpgpu_stall_shd_mem[l_mem_ld][wb_rsrv_fail] = 0
gpu_reg_bank_conflict_stalls = 0
Warp Occupancy Distribution:
Stall:24702816	W0_Idle:1196098	W0_Scoreboard:4567779	W1:425299	W2:194296	W3:120336	W4:88861	W5:70072	W6:61323	W7:51978	W8:46940	W9:44107	W10:39401	W11:34926	W12:30818	W13:27684	W14:23186	W15:21173	W16:17262	W17:16332	W18:13687	W19:12975	W20:10984	W21:13406	W22:13684	W23:13767	W24:13069	W25:11692	W26:9368	W27:7624	W28:4113	W29:1660	W30:747	W31:265	W32:276532
traffic_breakdown_coretomem[CONST_ACC_R] = 120 {8:15,}
traffic_breakdown_coretomem[GLOBAL_ACC_R] = 4908488 {8:613561,}
traffic_breakdown_coretomem[GLOBAL_ACC_W] = 16590176 {40:413978,72:80,136:186,}
traffic_breakdown_coretomem[INST_ACC_R] = 480 {8:60,}
traffic_breakdown_memtocore[CONST_ACC_R] = 1080 {72:15,}
traffic_breakdown_memtocore[GLOBAL_ACC_R] = 83444296 {136:613561,}
traffic_breakdown_memtocore[GLOBAL_ACC_W] = 3313952 {8:414244,}
traffic_breakdown_memtocore[INST_ACC_R] = 8160 {136:60,}
maxmrqlatency = 598 
maxdqlatency = 0 
maxmflatency = 1713 
averagemflatency = 537 
max_icnt2mem_latency = 1248 
max_icnt2sh_latency = 1099237 
mrq_lat_table:202375 	9515 	10368 	29443 	66464 	58235 	35088 	9452 	671 	7 	0 	0 	0 	0 	0 	0 	0 	0 	0 	0 	0 	0 	0 	0 	0 	0 	0 	0 	0 	0 	0 	0 	
dq_lat_table:0 	0 	0 	0 	0 	0 	0 	0 	0 	0 	0 	0 	0 	0 	0 	0 	0 	0 	0 	0 	0 	0 	0 	0 	0 	0 	0 	0 	0 	0 	0 	0 	
mf_lat_table:0 	0 	0 	0 	0 	0 	0 	33767 	439529 	548292 	6232 	0 	0 	0 	0 	0 	0 	0 	0 	0 	0 	0 	0 	0 	0 	0 	0 	0 	0 	0 	0 	0 	
icnt2mem_lat_table:0 	0 	0 	20971 	8802 	16875 	124316 	272847 	522807 	61238 	24 	0 	0 	0 	0 	0 	0 	0 	0 	0 	0 	0 	0 	0 	
icnt2sh_lat_table:0 	0 	0 	44622 	440964 	127081 	907 	2 	0 	0 	2 	9 	42 	887 	7466 	14548 	32559 	66164 	130863 	158477 	3227 	0 	0 	0 	
mf_lat_pw_table:0 	0 	0 	0 	0 	0 	0 	87 	516 	1603 	0 	0 	0 	0 	0 	0 	0 	0 	0 	0 	0 	0 	0 	0 	0 	0 	0 	0 	0 	0 	0 	0 	
maximum concurrent accesses to same row:
dram[0]:        26        18        19        14        15        14        34        32        32        32        18        19        32        34        29        22 
dram[1]:        22        28        13        15        16        17        51        32        32        32        19        35        28        39        30        46 
dram[2]:        28        18        16        18        15        17        37        32        32        32        22        22        36        28        31        60 
maximum service time to same row:
dram[0]:      7556      9893      5159      4702      6455      5032      4961      6290      5289      5083     10817      5710     30444      8846     14746      5764 
dram[1]:      6285      6985      5464     11804      3317      8763     10432      5171      5163      7060     10613     24278      9862     26197     10152     17070 
dram[2]:      6450      5356      6748      6218      4144      4450     18548      4261      7524      3357      6658      6591     11451      9194     11988     16025 
average row accesses per activate:
dram[0]:  2.378533  2.274216  2.295892  2.281532  2.143379  2.159955  2.324611  2.347426  2.350707  2.302676  2.254114  2.181264  2.380236  2.260547  2.202090  2.201802 
dram[1]:  2.294327  2.364429  2.354676  2.315701  2.136698  2.127684  2.362315  2.328098  2.296287  2.239163  2.174988  2.207741  2.196559  2.250670  2.263452  2.250157 
dram[2]:  2.287159  2.262948  2.304573  2.280072  2.100789  2.142700  2.343613  2.346242  2.361389  2.317148  2.155816  2.185242  2.313364  2.353545  2.398675  2.284227 
average row locality = 421618/186004 = 2.266715
number of total memory accesses made:
dram[0]:         0         0         0         0         0         0         0         0         0         0         0         0         0         0         0         0 
dram[1]:         0         0         0         0         0         0         0         0         0         0         0         0         0         0         0         0 
dram[2]:         0         0         0         0         0         0         0         0         0         0         0         0         0         0         0         0 
total accesses: 0
min_bank_accesses = 0!
min_chip_accesses = 0!
number of total read accesses:
dram[0]:      5240      5768      5830      6177      5448      5485      5519      5759      4752      5032      5210      5631      4517      4837      5154      5725 
dram[1]:      5806      5463      5963      5659      5762      5359      5628      5301      5308      5023      5707      5023      5316      4611      5373      4982 
dram[2]:      5452      5822      5941      6161      5456      5658      5460      5849      4647      5173      5168      5613      4450      4889      4928      5299 
total reads: 258334
bank skew: 6177/4450 = 1.39
chip skew: 86284/85966 = 1.00
number of total write accesses:
dram[0]:      3513      3811      3838      3953      3940      4008      4342      4457      3727      3831      3146      2961      2131      2182      2223      2338 
dram[1]:      3860      3763      3856      3928      4101      4056      4289      4186      4031      3862      3093      2905      2216      2105      2325      2205 
dram[2]:      3596      3834      3835      3999      3861      4057      4191      4329      3854      3894      2912      2975      2076      2214      2316      2159 
total reads: 163284
bank skew: 4457/2076 = 2.15
chip skew: 54781/54102 = 1.01
average mf latency per bank:
dram[0]:        672       644       631       619       765       749      1070      1047      1235      1186      1600      1628      2342      2255      2113      1998
dram[1]:        665       736       631       710       739      3215      1089      1277      1156      1362      1603      1995      2189      2664      2112      2475
dram[2]:        682       650       637       611       777       765      1107      1064      1229      1181      1715      1629      2390      2227      2176      2121
maximum mf latency per bank:
dram[0]:       1231      1358      1277      1341      1496      1272      1381      1284      1497      1286      1197      1412      1367      1342      1387      1313
dram[1]:       1518      1532      1312      1368      1713      1711      1433      1470      1391      1534      1339      1425      1313      1690      1328      1458
dram[2]:       1426      1268      1412      1249      1396      1527      1340      1603      1328      1453      1421      1324      1336      1302      1301      1367

Number of Memory Banks Accessed per Memory Operation per Warp (from 0):
0	0	0	0	0	0	0	0	0	0	0	0	0	0	0	0	0	0	0	0	0	0	0	0	0	0	0	0	0	0	0	0	0	0	0	0	0	0	0	0	0	0	0	0	0	0	0	0	
Average # of Memory Banks Accessed per Memory Operation per Warp=-nan

position of mrq chosen
0	0	0	0	0	0	0	0	0	0	0	0	0	0	0	0	

average position of mrq chosen = -nan
Memory Partition 0: 
Cache L2_bank_000:
MSHR contents

Cache L2_bank_001:
MSHR contents

In Dram Latency Queue (total = 0): 
DRAM[0]: 16 bks, busW=4 BL=8 CL=12, tRRD=2 tCCD=6, tRCD=12 tRAS=28 tRP=12 tRC=40
n_cmd=1454687 n_nop=1084720 n_act=61925 n_pre=61909 n_req=140485 n_rd=172168 n_write=73965 bw_util=0.3384
n_activity=1180990 dram_eff=0.4168
bk0: 10480a 1189432i bk1: 11536a 1161947i bk2: 11660a 1151025i bk3: 12354a 1137672i bk4: 10896a 1147957i bk5: 10970a 1143239i bk6: 11038a 1131208i bk7: 11518a 1120036i bk8: 9504a 1196207i bk9: 10064a 1177586i bk10: 10420a 1193357i bk11: 11262a 1190516i bk12: 9034a 1247868i bk13: 9674a 1238581i bk14: 10308a 1225916i bk15: 11450a 1203910i 
dram_util_bins: 0 0 0 0 0 0 0 0 0 0
dram_eff_bins: 0 0 0 0 0 0 0 0 0 0
mrqq: max=16 avg=2.84435
Memory Partition 1: 
Cache L2_bank_002:
MSHR contents

Cache L2_bank_003:
MSHR contents

In Dram Latency Queue (total = 0): 
DRAM[1]: 16 bks, busW=4 BL=8 CL=12, tRRD=2 tCCD=6, tRCD=12 tRAS=28 tRP=12 tRC=40
n_cmd=1454687 n_nop=1082674 n_act=62420 n_pre=62404 n_req=141065 n_rd=172568 n_write=74621 bw_util=0.3399
n_activity=1206932 dram_eff=0.4096
bk0: 11612a 1163877i bk1: 10926a 1177735i bk2: 11926a 1152090i bk3: 11318a 1158803i bk4: 11524a 1133376i bk5: 10718a 1146438i bk6: 11256a 1136161i bk7: 10602a 1148637i bk8: 10616a 1169659i bk9: 10046a 1178221i bk10: 11414a 1184444i bk11: 10046a 1210902i bk12: 10632a 1224353i bk13: 9222a 1249153i bk14: 10746a 1218870i bk15: 9964a 1229269i 
dram_util_bins: 0 0 0 0 0 0 0 0 0 0
dram_eff_bins: 0 0 0 0 0 0 0 0 0 0
mrqq: max=16 avg=2.7428
Memory Partition 2: 
Cache L2_bank_004:
MSHR contents

Cache L2_bank_005:
MSHR contents

In Dram Latency Queue (total = 0): 
DRAM[2]: 16 bks, busW=4 BL=8 CL=12, tRRD=2 tCCD=6, tRCD=12 tRAS=28 tRP=12 tRC=40
n_cmd=1454687 n_nop=1085762 n_act=61661 n_pre=61645 n_req=140068 n_rd=171932 n_write=73687 bw_util=0.3377
n_activity=1182665 dram_eff=0.4154
bk0: 10904a 1180551i bk1: 11644a 1163648i bk2: 11882a 1148835i bk3: 12322a 1134157i bk4: 10912a 1144555i bk5: 11316a 1131736i bk6: 10920a 1141790i bk7: 11698a 1127353i bk8: 9294a 1189819i bk9: 10346a 1175471i bk10: 10336a 1198483i bk11: 11226a 1186924i bk12: 8900a 1254182i bk13: 9778a 1242471i bk14: 9856a 1234160i bk15: 10598a 1226287i 
dram_util_bins: 0 0 0 0 0 0 0 0 0 0
dram_eff_bins: 0 0 0 0 0 0 0 0 0 0
mrqq: max=16 avg=2.82293

========= L2 cache stats =========
L2_cache_bank[0]: Access = 163780, Miss = 41670, Miss_rate = 0.254, Pending_hits = 721, Reservation_fails = 2367
L2_cache_bank[1]: Access = 164912, Miss = 44414, Miss_rate = 0.269, Pending_hits = 702, Reservation_fails = 1781
L2_cache_bank[2]: Access = 164737, Miss = 44863, Miss_rate = 0.272, Pending_hits = 754, Reservation_fails = 1386
L2_cache_bank[3]: Access = 204766, Miss = 41421, Miss_rate = 0.202, Pending_hits = 651, Reservation_fails = 2852
L2_cache_bank[4]: Access = 163993, Miss = 41502, Miss_rate = 0.253, Pending_hits = 665, Reservation_fails = 2114
L2_cache_bank[5]: Access = 165692, Miss = 44464, Miss_rate = 0.268, Pending_hits = 721, Reservation_fails = 2247
L2_total_cache_accesses = 1027880
L2_total_cache_misses = 258334
L2_total_cache_miss_rate = 0.2513
L2_total_cache_pending_hits = 4214
L2_total_cache_reservation_fails = 12747
L2_total_cache_breakdown:
	L2_cache_stats_breakdown[GLOBAL_ACC_R][HIT] = 455401
	L2_cache_stats_breakdown[GLOBAL_ACC_R][HIT_RESERVED] = 1030
	L2_cache_stats_breakdown[GLOBAL_ACC_R][MISS] = 157130
	L2_cache_stats_breakdown[GLOBAL_ACC_R][RESERVATION_FAIL] = 8199
	L2_cache_stats_breakdown[CONST_ACC_R][HIT] = 11
	L2_cache_stats_breakdown[CONST_ACC_R][HIT_RESERVED] = 3
	L2_cache_stats_breakdown[CONST_ACC_R][MISS] = 1
	L2_cache_stats_breakdown[CONST_ACC_R][RESERVATION_FAIL] = 90
	L2_cache_stats_breakdown[GLOBAL_ACC_W][HIT] = 309870
	L2_cache_stats_breakdown[GLOBAL_ACC_W][HIT_RESERVED] = 3175
	L2_cache_stats_breakdown[GLOBAL_ACC_W][MISS] = 101199
	L2_cache_stats_breakdown[GLOBAL_ACC_W][RESERVATION_FAIL] = 4230
	L2_cache_stats_breakdown[INST_ACC_R][HIT] = 50
	L2_cache_stats_breakdown[INST_ACC_R][HIT_RESERVED] = 6
	L2_cache_stats_breakdown[INST_ACC_R][MISS] = 4
	L2_cache_stats_breakdown[INST_ACC_R][RESERVATION_FAIL] = 228
L2_cache_data_port_util = 0.344
L2_cache_fill_port_util = 0.156

icnt_total_pkts_mem_to_simt=3482394
icnt_total_pkts_simt_to_mem=1442762
LD_mem_lat_dist  0 0 0 0 0 0 0 0 0 0 0 0 0 0 0 0 0 0 0 0 0 0 0 0 0 0 0
ST_mem_lat_dist  0 0 0 0 0 0 0 0 0 0 0 0 0 0 0 0 0 0 0 0 0 0 0 0 0 0 0
----------------------------Interconnect-DETAILS--------------------------------
Class 0:
Packet latency average = 11.2329
	minimum = 6
	maximum = 32
Network latency average = 10.1335
	minimum = 6
	maximum = 22
Slowest packet = 2054814
Flit latency average = 8.36981
	minimum = 6
	maximum = 22
Slowest flit = 4922218
Fragmentation average = 0
	minimum = 0
	maximum = 0
Injected packet rate average = 0.0256529
	minimum = 0 (at node 21)
	maximum = 0.0584145 (at node 15)
Accepted packet rate average = 0.0256529
	minimum = 0 (at node 21)
	maximum = 0.0584145 (at node 15)
Injected flit rate average = 0.0769587
	minimum = 0 (at node 21)
	maximum = 0.292072 (at node 15)
Accepted flit rate average= 0.0769587
	minimum = 0 (at node 21)
	maximum = 0.125174 (at node 0)
Injected packet length average = 3
Accepted packet length average = 3
Total in-flight flits = 0 (0 measured)
====== Overall Traffic Statistics ======
====== Traffic class 0 ======
Packet latency average = 49.8927 (9 samples)
	minimum = 6 (9 samples)
	maximum = 374.778 (9 samples)
Network latency average = 30.2088 (9 samples)
	minimum = 6 (9 samples)
	maximum = 295.889 (9 samples)
Flit latency average = 20.026 (9 samples)
	minimum = 6 (9 samples)
	maximum = 294.889 (9 samples)
Fragmentation average = 0.0393637 (9 samples)
	minimum = 0 (9 samples)
	maximum = 149.444 (9 samples)
Injected packet rate average = 0.0393015 (9 samples)
	minimum = 0 (9 samples)
	maximum = 0.114634 (9 samples)
Accepted packet rate average = 0.0393015 (9 samples)
	minimum = 0 (9 samples)
	maximum = 0.114634 (9 samples)
Injected flit rate average = 0.0978022 (9 samples)
	minimum = 0 (9 samples)
	maximum = 0.353561 (9 samples)
Accepted flit rate average = 0.0978022 (9 samples)
	minimum = 0 (9 samples)
	maximum = 0.201071 (9 samples)
Injected packet size average = 2.48851 (9 samples)
Accepted packet size average = 2.48851 (9 samples)
Hops average = 1 (9 samples)
----------------------------END-of-Interconnect-DETAILS-------------------------


gpgpu_simulation_time = 0 days, 0 hrs, 9 min, 56 sec (596 sec)
gpgpu_simulation_rate = 28224 (inst/sec)
gpgpu_simulation_rate = 1849 (cycle/sec)
GPGPU-Sim: synchronize waiting for inactive GPU simulation
GPGPU-Sim API: Stream Manager State
GPGPU-Sim: detected inactive GPU simulation thread
Kernel Executed 9 times
Processing time: 595354.687500 (ms)
Result stored in result.txt
