

        *** GPGPU-Sim Simulator Version 3.2.2  [build 0] ***


GPGPU-Sim PTX: simulation mode 0 (can change with PTX_SIM_MODE_FUNC environment variable:
               1=functional simulation only, 0=detailed performance simulator)
GPGPU-Sim: Configuration options:

-network_mode                           1 # Interconnection network mode
-inter_config_file   config_fermi_islip.icnt # Interconnection network config file
-gpgpu_ptx_use_cuobjdump                    1 # Use cuobjdump to extract ptx and sass from binaries
-gpgpu_experimental_lib_support                    0 # Try to extract code from cuda libraries [Broken because of unknown cudaGetExportTable]
-gpgpu_ptx_convert_to_ptxplus                    0 # Convert SASS (native ISA) to ptxplus and run ptxplus
-gpgpu_ptx_force_max_capability                   20 # Force maximum compute capability
-gpgpu_ptx_inst_debug_to_file                    0 # Dump executed instructions' debug information to file
-gpgpu_ptx_inst_debug_file       inst_debug.txt # Executed instructions' debug output file
-gpgpu_ptx_inst_debug_thread_uid                    1 # Thread UID for executed instructions' debug output
-gpgpu_simd_model                       1 # 1 = post-dominator
-gpgpu_shader_core_pipeline              1536:32 # shader core pipeline config, i.e., {<nthread>:<warpsize>}
-gpgpu_tex_cache:l1  4:128:24,L:R:m:N:L,F:128:4,128:2 # per-shader L1 texture cache  (READ-ONLY) config  {<nsets>:<bsize>:<assoc>,<rep>:<wr>:<alloc>:<wr_alloc>,<mshr>:<N>:<merge>,<mq>:<rf>}
-gpgpu_const_cache:l1 64:64:2,L:R:f:N:L,A:2:32,4 # per-shader L1 constant memory cache  (READ-ONLY) config  {<nsets>:<bsize>:<assoc>,<rep>:<wr>:<alloc>:<wr_alloc>,<mshr>:<N>:<merge>,<mq>} 
-gpgpu_cache:il1     4:128:4,L:R:f:N:L,A:2:32,4 # shader L1 instruction cache config  {<nsets>:<bsize>:<assoc>,<rep>:<wr>:<alloc>:<wr_alloc>,<mshr>:<N>:<merge>,<mq>} 
-gpgpu_cache:dl1     32:128:4,L:L:m:N:H,A:32:8,8 # per-shader L1 data cache config  {<nsets>:<bsize>:<assoc>,<rep>:<wr>:<alloc>:<wr_alloc>,<mshr>:<N>:<merge>,<mq> | none}
-gpgpu_cache:dl1PrefL1                 none # per-shader L1 data cache config  {<nsets>:<bsize>:<assoc>,<rep>:<wr>:<alloc>:<wr_alloc>,<mshr>:<N>:<merge>,<mq> | none}
-gpgpu_cache:dl1PreShared                 none # per-shader L1 data cache config  {<nsets>:<bsize>:<assoc>,<rep>:<wr>:<alloc>:<wr_alloc>,<mshr>:<N>:<merge>,<mq> | none}
-gmem_skip_L1D                          0 # global memory access skip L1D cache (implements -Xptxas -dlcm=cg, default=no skip)
-gpgpu_perfect_mem                      0 # enable perfect memory mode (no cache miss)
-n_regfile_gating_group                    4 # group of lanes that should be read/written together)
-gpgpu_clock_gated_reg_file                    0 # enable clock gated reg file for power calculations
-gpgpu_clock_gated_lanes                    0 # enable clock gated lanes for power calculations
-gpgpu_shader_registers                32768 # Number of registers per shader core. Limits number of concurrent CTAs. (default 8192)
-gpgpu_shader_cta                       8 # Maximum number of concurrent CTAs in shader (default 8)
-gpgpu_num_cta_barriers                   16 # Maximum number of named barriers per CTA (default 16)
-gpgpu_n_clusters                      15 # number of processing clusters
-gpgpu_n_cores_per_cluster                    1 # number of simd cores per cluster
-gpgpu_n_cluster_ejection_buffer_size                    8 # number of packets in ejection buffer
-gpgpu_n_ldst_response_buffer_size                    2 # number of response packets in ld/st unit ejection buffer
-gpgpu_shmem_size                   16384 # Size of shared memory per shader core (default 16kB)
-gpgpu_shmem_size                   49152 # Size of shared memory per shader core (default 16kB)
-gpgpu_shmem_size_PrefL1                16384 # Size of shared memory per shader core (default 16kB)
-gpgpu_shmem_size_PrefShared                16384 # Size of shared memory per shader core (default 16kB)
-gpgpu_shmem_num_banks                   32 # Number of banks in the shared memory in each shader core (default 16)
-gpgpu_shmem_limited_broadcast                    0 # Limit shared memory to do one broadcast per cycle (default on)
-gpgpu_shmem_warp_parts                    1 # Number of portions a warp is divided into for shared memory bank conflict check 
-gpgpu_warpdistro_shader                   -1 # Specify which shader core to collect the warp size distribution from
-gpgpu_warp_issue_shader                    0 # Specify which shader core to collect the warp issue distribution from
-gpgpu_local_mem_map                    1 # Mapping from local memory space address to simulated GPU physical address space (default = enabled)
-gpgpu_num_reg_banks                   16 # Number of register banks (default = 8)
-gpgpu_reg_bank_use_warp_id                    0 # Use warp ID in mapping registers to banks (default = off)
-gpgpu_operand_collector_num_units_sp                    6 # number of collector units (default = 4)
-gpgpu_operand_collector_num_units_sfu                    8 # number of collector units (default = 4)
-gpgpu_operand_collector_num_units_mem                    2 # number of collector units (default = 2)
-gpgpu_operand_collector_num_units_gen                    0 # number of collector units (default = 0)
-gpgpu_operand_collector_num_in_ports_sp                    2 # number of collector unit in ports (default = 1)
-gpgpu_operand_collector_num_in_ports_sfu                    1 # number of collector unit in ports (default = 1)
-gpgpu_operand_collector_num_in_ports_mem                    1 # number of collector unit in ports (default = 1)
-gpgpu_operand_collector_num_in_ports_gen                    0 # number of collector unit in ports (default = 0)
-gpgpu_operand_collector_num_out_ports_sp                    2 # number of collector unit in ports (default = 1)
-gpgpu_operand_collector_num_out_ports_sfu                    1 # number of collector unit in ports (default = 1)
-gpgpu_operand_collector_num_out_ports_mem                    1 # number of collector unit in ports (default = 1)
-gpgpu_operand_collector_num_out_ports_gen                    0 # number of collector unit in ports (default = 0)
-gpgpu_coalesce_arch                   13 # Coalescing arch (default = 13, anything else is off for now)
-gpgpu_num_sched_per_core                    2 # Number of warp schedulers per core
-gpgpu_max_insn_issue_per_warp                    1 # Max number of instructions that can be issued per warp in one cycle by scheduler
-gpgpu_simt_core_sim_order                    1 # Select the simulation order of cores in a cluster (0=Fix, 1=Round-Robin)
-gpgpu_pipeline_widths        2,1,1,2,1,1,2 # Pipeline widths ID_OC_SP,ID_OC_SFU,ID_OC_MEM,OC_EX_SP,OC_EX_SFU,OC_EX_MEM,EX_WB
-gpgpu_num_sp_units                     2 # Number of SP units (default=1)
-gpgpu_num_sfu_units                    1 # Number of SF units (default=1)
-gpgpu_num_mem_units                    1 # Number if ldst units (default=1) WARNING: not hooked up to anything
-gpgpu_scheduler                      gto # Scheduler configuration: < lrr | gto | two_level_active > If two_level_active:<num_active_warps>:<inner_prioritization>:<outer_prioritization>For complete list of prioritization values see shader.h enum scheduler_prioritization_typeDefault: gto
-gpgpu_dram_scheduler                    1 # 0 = fifo, 1 = FR-FCFS (defaul)
-gpgpu_dram_partition_queues              8:8:8:8 # i2$:$2d:d2$:$2i
-l2_ideal                               0 # Use a ideal L2 cache that always hit
-gpgpu_cache:dl2     64:128:8,L:B:m:W:L,A:32:4,4:0,32 # unified banked L2 data cache config  {<nsets>:<bsize>:<assoc>,<rep>:<wr>:<alloc>:<wr_alloc>,<mshr>:<N>:<merge>,<mq>}
-gpgpu_cache:dl2_texture_only                    0 # L2 cache used for texture only
-gpgpu_n_mem                            6 # number of memory modules (e.g. memory controllers) in gpu
-gpgpu_n_sub_partition_per_mchannel                    2 # number of memory subpartition in each memory module
-gpgpu_n_mem_per_ctrlr                    2 # number of memory chips per memory controller
-gpgpu_memlatency_stat                   14 # track and display latency statistics 0x2 enables MC, 0x4 enables queue logs
-gpgpu_frfcfs_dram_sched_queue_size                   16 # 0 = unlimited (default); # entries per chip
-gpgpu_dram_return_queue_size                  116 # 0 = unlimited (default); # entries per chip
-gpgpu_dram_buswidth                    1 # default = 4 bytes (8 bytes per cycle at DDR)
-gpgpu_dram_burst_length                    8 # Burst length of each DRAM request (default = 4 data bus cycle)
-dram_data_command_freq_ratio                    4 # Frequency ratio between DRAM data bus and command bus (default = 2 times, i.e. DDR)
-gpgpu_dram_timing_opt nbk=16:CCD=2:RRD=6:RCD=12:RAS=28:RP=12:RC=40: CL=12:WL=4:CDLR=5:WR=12:nbkgrp=4:CCDL=3:RTPL=2 # DRAM timing parameters = {nbk:tCCD:tRRD:tRCD:tRAS:tRP:tRC:CL:WL:tCDLR:tWR:nbkgrp:tCCDL:tRTPL}
-rop_latency                          120 # ROP queue latency (default 85)
-dram_latency                         100 # DRAM latency (default 30)
-gpgpu_mem_addr_mapping dramid@8;00000000.00000000.00000000.00000000.0000RRRR.RRRRRRRR.BBBCCCCB.CCSSSSSS # mapping memory address to dram model {dramid@<start bit>;<memory address map>}
-gpgpu_mem_addr_test                    0 # run sweep test to check address mapping for aliased address
-gpgpu_mem_address_mask                    1 # 0 = old addressing mask, 1 = new addressing mask, 2 = new add. mask + flipped bank sel and chip sel bits
-gpuwattch_xml_file  gpuwattch_gtx480.xml # GPUWattch XML file
-power_simulation_enabled                    0 # Turn on power simulator (1=On, 0=Off)
-power_per_cycle_dump                    0 # Dump detailed power output each cycle
-power_trace_enabled                    0 # produce a file for the power trace (1=On, 0=Off)
-power_trace_zlevel                     6 # Compression level of the power trace output log (0=no comp, 9=highest)
-steady_power_levels_enabled                    0 # produce a file for the steady power levels (1=On, 0=Off)
-steady_state_definition                  8:4 # allowed deviation:number of samples
-gpgpu_max_cycle                        0 # terminates gpu simulation early (0 = no limit)
-gpgpu_max_insn                         0 # terminates gpu simulation early (0 = no limit)
-gpgpu_max_cta                          0 # terminates gpu simulation early (0 = no limit)
-gpgpu_runtime_stat                   500 # display runtime statistics such as dram utilization {<freq>:<flag>}
-liveness_message_freq                    1 # Minimum number of seconds between simulation liveness messages (0 = always print)
-gpgpu_flush_l1_cache                    0 # Flush L1 cache at the end of each kernel call
-gpgpu_flush_l2_cache                    0 # Flush L2 cache at the end of each kernel call
-gpgpu_deadlock_detect                    1 # Stop the simulation at deadlock (1=on (default), 0=off)
-gpgpu_ptx_instruction_classification                    0 # if enabled will classify ptx instruction types per kernel (Max 255 kernels now)
-gpgpu_ptx_sim_mode                     0 # Select between Performance (default) or Functional simulation (1)
-gpgpu_clock_domains 700.0:700.0:700.0:924.0 # Clock Domain Frequencies in MhZ {<Core Clock>:<ICNT Clock>:<L2 Clock>:<DRAM Clock>}
-gpgpu_max_concurrent_kernel                    8 # maximum kernels that can run concurrently on GPU
-gpgpu_cflog_interval                    0 # Interval between each snapshot in control flow logger
-visualizer_enabled                     0 # Turn on visualizer output (1=On, 0=Off)
-visualizer_outputfile                 NULL # Specifies the output log file for visualizer
-visualizer_zlevel                      6 # Compression level of the visualizer output log (0=no comp, 9=highest)
-trace_enabled                          0 # Turn on traces
-trace_components                    none # comma seperated list of traces to enable. Complete list found in trace_streams.tup. Default none
-trace_sampling_core                    0 # The core which is printed using CORE_DPRINTF. Default 0
-trace_sampling_memory_partition                   -1 # The memory partition which is printed using MEMPART_DPRINTF. Default -1 (i.e. all)
-enable_ptx_file_line_stats                    1 # Turn on PTX source line statistic profiling. (1 = On)
-ptx_line_stats_filename gpgpu_inst_stats.txt # Output file for PTX source line statistics.
-save_embedded_ptx                      0 # saves ptx files embedded in binary as <n>.ptx
-keep                                   0 # keep intermediate files created by GPGPU-Sim when interfacing with external programs
-gpgpu_ptx_save_converted_ptxplus                    0 # Saved converted ptxplus to a file
-ptx_opcode_latency_int         4,13,4,5,145 # Opcode latencies for integers <ADD,MAX,MUL,MAD,DIV>Default 1,1,19,25,145
-ptx_opcode_latency_fp          4,13,4,5,39 # Opcode latencies for single precision floating points <ADD,MAX,MUL,MAD,DIV>Default 1,1,1,1,30
-ptx_opcode_latency_dp         8,19,8,8,330 # Opcode latencies for double precision floating points <ADD,MAX,MUL,MAD,DIV>Default 8,8,8,8,335
-ptx_opcode_initiation_int            1,2,2,1,8 # Opcode initiation intervals for integers <ADD,MAX,MUL,MAD,DIV>Default 1,1,4,4,32
-ptx_opcode_initiation_fp            1,2,1,1,4 # Opcode initiation intervals for single precision floating points <ADD,MAX,MUL,MAD,DIV>Default 1,1,1,1,5
-ptx_opcode_initiation_dp         8,16,8,8,130 # Opcode initiation intervals for double precision floating points <ADD,MAX,MUL,MAD,DIV>Default 8,8,8,8,130
DRAM Timing Options:
nbk                                    16 # number of banks
CCD                                     2 # column to column delay
RRD                                     6 # minimal delay between activation of rows in different banks
RCD                                    12 # row to column delay
RAS                                    28 # time needed to activate row
RP                                     12 # time needed to precharge (deactivate) row
RC                                     40 # row cycle time
CDLR                                    5 # switching from write to read (changes tWTR)
WR                                     12 # last data-in to row precharge
CL                                     12 # CAS latency
WL                                      4 # Write latency
nbkgrp                                  4 # number of bank groups
CCDL                                    3 # column to column delay between accesses to different bank groups
RTPL                                    2 # read to precharge delay between accesses to different bank groups
Total number of memory sub partition = 12
addr_dec_mask[CHIP]  = 0000000000000000 	high:64 low:0
addr_dec_mask[BK]    = 000000000000e100 	high:16 low:8
addr_dec_mask[ROW]   = 000000000fff0000 	high:28 low:16
addr_dec_mask[COL]   = 0000000000001eff 	high:13 low:0
addr_dec_mask[BURST] = 000000000000003f 	high:6 low:0
sub_partition_id_mask = 0000000000000100
GPGPU-Sim uArch: clock freqs: 700000000.000000:700000000.000000:700000000.000000:924000000.000000
GPGPU-Sim uArch: clock periods: 0.00000000142857142857:0.00000000142857142857:0.00000000142857142857:0.00000000108225108225
*** Initializing Memory Statistics ***
GPGPU-Sim uArch: interconnect node map (shaderID+MemID to icntID)
GPGPU-Sim uArch: Memory nodes ID start from index: 15
GPGPU-Sim uArch:    0   1   2   3   4
GPGPU-Sim uArch:    5   6   7   8   9
GPGPU-Sim uArch:   10  11  12  13  14
GPGPU-Sim uArch:   15  16  17  18  19
GPGPU-Sim uArch:   20  21  22  23  24
GPGPU-Sim uArch:   25  26
GPGPU-Sim uArch: interconnect node reverse map (icntID to shaderID+MemID)
GPGPU-Sim uArch: Memory nodes start from ID: 15
GPGPU-Sim uArch:    0   1   2   3   4
GPGPU-Sim uArch:    5   6   7   8   9
GPGPU-Sim uArch:   10  11  12  13  14
GPGPU-Sim uArch:   15  16  17  18  19
GPGPU-Sim uArch:   20  21  22  23  24
GPGPU-Sim uArch:   25  26
c498d9f32ab5dd92351405d48e0f6df7  /sciclone/data20/adwait/applications/benchmarks/CUDA/BFS/gpgpu_ptx_sim__BFS
GPGPU-Sim uArch: performance model initialization complete.
GPGPU-Sim PTX: __cudaRegisterFatBinary, fat_cubin_handle = 1, filename=bfs.cu
self exe links to: /sciclone/data20/adwait/applications/benchmarks/CUDA/BFS/gpgpu_ptx_sim__BFS
Running md5sum using "md5sum /sciclone/data20/adwait/applications/benchmarks/CUDA/BFS/gpgpu_ptx_sim__BFS "
Parsing file _cuobjdump_complete_output_oCnMN5
######### cuobjdump parser ########
## Adding new section ELF
Adding arch: sm_20
Adding identifier: bfs.cu
## Adding new section PTX
Adding ptx filename: _cuobjdump_1.ptx
Adding arch: sm_20
Adding identifier: bfs.cu
Done parsing!!!
GPGPU-Sim PTX: __cudaRegisterFunction _Z6KernelP4NodePiPbS2_S1_S2_i : hostFun 0x0x405636, fat_cubin_handle = 1
GPGPU-Sim PTX: instruction assembly for function '_Z6KernelP4NodePiPbS2_S1_S2_i'...   done.
GPGPU-Sim PTX: finding reconvergence points for '_Z6KernelP4NodePiPbS2_S1_S2_i'...
GPGPU-Sim PTX: Finding dominators for '_Z6KernelP4NodePiPbS2_S1_S2_i'...
GPGPU-Sim PTX: Finding immediate dominators for '_Z6KernelP4NodePiPbS2_S1_S2_i'...
GPGPU-Sim PTX: Finding postdominators for '_Z6KernelP4NodePiPbS2_S1_S2_i'...
GPGPU-Sim PTX: Finding immediate postdominators for '_Z6KernelP4NodePiPbS2_S1_S2_i'...
GPGPU-Sim PTX: pre-decoding instructions for '_Z6KernelP4NodePiPbS2_S1_S2_i'...
GPGPU-Sim PTX: reconvergence points for _Z6KernelP4NodePiPbS2_S1_S2_i...
GPGPU-Sim PTX:  1 (potential) branch divergence @  PC=0x030 (_1.ptx:72) @%p1 bra $Lt_0_5122;
GPGPU-Sim PTX:    immediate post dominator      @  PC=0x1e8 (_1.ptx:141) exit;
GPGPU-Sim PTX:  2 (potential) branch divergence @  PC=0x068 (_1.ptx:79) @%p2 bra $Lt_0_5122;
GPGPU-Sim PTX:    immediate post dominator      @  PC=0x1e8 (_1.ptx:141) exit;
GPGPU-Sim PTX:  3 (potential) branch divergence @  PC=0x0e0 (_1.ptx:97) @%p3 bra $Lt_0_5122;
GPGPU-Sim PTX:    immediate post dominator      @  PC=0x1e8 (_1.ptx:141) exit;
GPGPU-Sim PTX:  4 (potential) branch divergence @  PC=0x138 (_1.ptx:111) @%p4 bra $Lt_0_4354;
GPGPU-Sim PTX:    immediate post dominator      @  PC=0x1c8 (_1.ptx:134) add.s32 %r11, %r11, 1;
GPGPU-Sim PTX:  5 (potential) branch divergence @  PC=0x1e0 (_1.ptx:137) @%p5 bra $Lt_0_4098;
GPGPU-Sim PTX:    immediate post dominator      @  PC=0x1e8 (_1.ptx:141) exit;
GPGPU-Sim PTX: ... end of reconvergence points for _Z6KernelP4NodePiPbS2_S1_S2_i
GPGPU-Sim PTX: ... done pre-decoding instructions for '_Z6KernelP4NodePiPbS2_S1_S2_i'.
GPGPU-Sim PTX: finished parsing EMBEDDED .ptx file _1.ptx
Adding _cuobjdump_1.ptx with cubin handle 1
GPGPU-Sim PTX: extracting embedded .ptx to temporary file "_ptx_xcrYo1"
Running: cat _ptx_xcrYo1 | sed 's/.version 1.5/.version 1.4/' | sed 's/, texmode_independent//' | sed 's/\(\.extern \.const\[1\] .b8 \w\+\)\[\]/\1\[1\]/' | sed 's/const\[.\]/const\[0\]/g' > _ptx2_YFJMwX
GPGPU-Sim PTX: generating ptxinfo using "$CUDA_INSTALL_PATH/bin/ptxas --gpu-name=sm_20 -v _ptx2_YFJMwX --output-file  /dev/null 2> _ptx_xcrYo1info"
GPGPU-Sim PTX: Kernel '_Z6KernelP4NodePiPbS2_S1_S2_i' : regs=18, lmem=0, smem=0, cmem=84
GPGPU-Sim PTX: removing ptxinfo using "rm -f _ptx_xcrYo1 _ptx2_YFJMwX _ptx_xcrYo1info"
GPGPU-Sim PTX: loading globals with explicit initializers... 
GPGPU-Sim PTX: finished loading globals (0 bytes total).
GPGPU-Sim PTX: loading constants with explicit initializers...  done.
Reading File
Input file: ./data/graph65536.txt
Read File
Copied Everything to GPU memory

GPGPU-Sim PTX: cudaLaunch for 0x0x405636 (mode=performance simulation) on stream 0
GPGPU-Sim PTX: pushing kernel '_Z6KernelP4NodePiPbS2_S1_S2_i' to stream 0, gridDim= (256,1,1) blockDim = (256,1,1) 
kernel '_Z6KernelP4NodePiPbS2_S1_S2_i' transfer to GPU hardware scheduler
GPGPU-Sim uArch: Shader 1 bind to kernel 1 '_Z6KernelP4NodePiPbS2_S1_S2_i'
GPGPU-Sim uArch: CTA/core = 6, limited by: threads regs
GPGPU-Sim uArch: core:  1, cta: 0 initialized @(1,0)
GPGPU-Sim uArch: Shader 2 bind to kernel 1 '_Z6KernelP4NodePiPbS2_S1_S2_i'
GPGPU-Sim uArch: core:  2, cta: 0 initialized @(1,0)
GPGPU-Sim uArch: Shader 3 bind to kernel 1 '_Z6KernelP4NodePiPbS2_S1_S2_i'
GPGPU-Sim uArch: core:  3, cta: 0 initialized @(1,0)
GPGPU-Sim uArch: Shader 4 bind to kernel 1 '_Z6KernelP4NodePiPbS2_S1_S2_i'
GPGPU-Sim uArch: core:  4, cta: 0 initialized @(1,0)
GPGPU-Sim uArch: Shader 5 bind to kernel 1 '_Z6KernelP4NodePiPbS2_S1_S2_i'
GPGPU-Sim uArch: core:  5, cta: 0 initialized @(1,0)
GPGPU-Sim uArch: Shader 6 bind to kernel 1 '_Z6KernelP4NodePiPbS2_S1_S2_i'
GPGPU-Sim uArch: core:  6, cta: 0 initialized @(1,0)
GPGPU-Sim uArch: Shader 7 bind to kernel 1 '_Z6KernelP4NodePiPbS2_S1_S2_i'
GPGPU-Sim uArch: core:  7, cta: 0 initialized @(1,0)
GPGPU-Sim uArch: Shader 8 bind to kernel 1 '_Z6KernelP4NodePiPbS2_S1_S2_i'
GPGPU-Sim uArch: core:  8, cta: 0 initialized @(1,0)
GPGPU-Sim uArch: Shader 9 bind to kernel 1 '_Z6KernelP4NodePiPbS2_S1_S2_i'
GPGPU-Sim uArch: core:  9, cta: 0 initialized @(1,0)
GPGPU-Sim uArch: Shader 10 bind to kernel 1 '_Z6KernelP4NodePiPbS2_S1_S2_i'
GPGPU-Sim uArch: core: 10, cta: 0 initialized @(1,0)
GPGPU-Sim uArch: Shader 11 bind to kernel 1 '_Z6KernelP4NodePiPbS2_S1_S2_i'
GPGPU-Sim uArch: core: 11, cta: 0 initialized @(1,0)
GPGPU-Sim uArch: Shader 12 bind to kernel 1 '_Z6KernelP4NodePiPbS2_S1_S2_i'
GPGPU-Sim uArch: core: 12, cta: 0 initialized @(1,0)
GPGPU-Sim uArch: Shader 13 bind to kernel 1 '_Z6KernelP4NodePiPbS2_S1_S2_i'
GPGPU-Sim uArch: core: 13, cta: 0 initialized @(1,0)
GPGPU-Sim uArch: Shader 14 bind to kernel 1 '_Z6KernelP4NodePiPbS2_S1_S2_i'
GPGPU-Sim uArch: core: 14, cta: 0 initialized @(1,0)
GPGPU-Sim uArch: Shader 0 bind to kernel 1 '_Z6KernelP4NodePiPbS2_S1_S2_i'
GPGPU-Sim uArch: core:  0, cta: 0 initialized @(1,0)
GPGPU-Sim uArch: core:  1, cta: 1 initialized @(2,0)
GPGPU-Sim uArch: core:  2, cta: 1 initialized @(2,0)
GPGPU-Sim uArch: core:  3, cta: 1 initialized @(2,0)
GPGPU-Sim uArch: core:  4, cta: 1 initialized @(2,0)
GPGPU-Sim uArch: core:  5, cta: 1 initialized @(2,0)
GPGPU-Sim uArch: core:  6, cta: 1 initialized @(2,0)
GPGPU-Sim uArch: core:  7, cta: 1 initialized @(2,0)
GPGPU-Sim uArch: core:  8, cta: 1 initialized @(2,0)
GPGPU-Sim uArch: core:  9, cta: 1 initialized @(2,0)
GPGPU-Sim uArch: core: 10, cta: 1 initialized @(2,0)
GPGPU-Sim uArch: core: 11, cta: 1 initialized @(2,0)
GPGPU-Sim uArch: core: 12, cta: 1 initialized @(2,0)
GPGPU-Sim uArch: core: 13, cta: 1 initialized @(2,0)
GPGPU-Sim uArch: core: 14, cta: 1 initialized @(2,0)
GPGPU-Sim uArch: core:  0, cta: 1 initialized @(2,0)
GPGPU-Sim uArch: core:  1, cta: 2 initialized @(3,0)
GPGPU-Sim uArch: core:  2, cta: 2 initialized @(3,0)
GPGPU-Sim uArch: core:  3, cta: 2 initialized @(3,0)
GPGPU-Sim uArch: core:  4, cta: 2 initialized @(3,0)
GPGPU-Sim uArch: core:  5, cta: 2 initialized @(3,0)
GPGPU-Sim uArch: core:  6, cta: 2 initialized @(3,0)
GPGPU-Sim uArch: core:  7, cta: 2 initialized @(3,0)
GPGPU-Sim uArch: core:  8, cta: 2 initialized @(3,0)
GPGPU-Sim uArch: core:  9, cta: 2 initialized @(3,0)
GPGPU-Sim uArch: core: 10, cta: 2 initialized @(3,0)
GPGPU-Sim uArch: core: 11, cta: 2 initialized @(3,0)
GPGPU-Sim uArch: core: 12, cta: 2 initialized @(3,0)
GPGPU-Sim uArch: core: 13, cta: 2 initialized @(3,0)
GPGPU-Sim uArch: core: 14, cta: 2 initialized @(3,0)
GPGPU-Sim uArch: core:  0, cta: 2 initialized @(3,0)
GPGPU-Sim uArch: core:  1, cta: 3 initialized @(4,0)
GPGPU-Sim uArch: core:  2, cta: 3 initialized @(4,0)
GPGPU-Sim uArch: core:  3, cta: 3 initialized @(4,0)
GPGPU-Sim uArch: core:  4, cta: 3 initialized @(4,0)
GPGPU-Sim uArch: core:  5, cta: 3 initialized @(4,0)
GPGPU-Sim uArch: core:  6, cta: 3 initialized @(4,0)
GPGPU-Sim uArch: core:  7, cta: 3 initialized @(4,0)
GPGPU-Sim uArch: core:  8, cta: 3 initialized @(4,0)
GPGPU-Sim uArch: core:  9, cta: 3 initialized @(4,0)
GPGPU-Sim uArch: core: 10, cta: 3 initialized @(4,0)
GPGPU-Sim uArch: core: 11, cta: 3 initialized @(4,0)
GPGPU-Sim uArch: core: 12, cta: 3 initialized @(4,0)
GPGPU-Sim uArch: core: 13, cta: 3 initialized @(4,0)
GPGPU-Sim uArch: core: 14, cta: 3 initialized @(4,0)
GPGPU-Sim uArch: core:  0, cta: 3 initialized @(4,0)
GPGPU-Sim uArch: core:  1, cta: 4 initialized @(5,0)
GPGPU-Sim uArch: core:  2, cta: 4 initialized @(5,0)
GPGPU-Sim uArch: core:  3, cta: 4 initialized @(5,0)
GPGPU-Sim uArch: core:  4, cta: 4 initialized @(5,0)
GPGPU-Sim uArch: core:  5, cta: 4 initialized @(5,0)
GPGPU-Sim uArch: core:  6, cta: 4 initialized @(5,0)
GPGPU-Sim uArch: core:  7, cta: 4 initialized @(5,0)
GPGPU-Sim uArch: core:  8, cta: 4 initialized @(5,0)
GPGPU-Sim uArch: core:  9, cta: 4 initialized @(5,0)
GPGPU-Sim uArch: core: 10, cta: 4 initialized @(5,0)
GPGPU-Sim uArch: core: 11, cta: 4 initialized @(5,0)
GPGPU-Sim uArch: core: 12, cta: 4 initialized @(5,0)
GPGPU-Sim uArch: core: 13, cta: 4 initialized @(5,0)
GPGPU-Sim uArch: core: 14, cta: 4 initialized @(5,0)
GPGPU-Sim uArch: core:  0, cta: 4 initialized @(5,0)
GPGPU-Sim uArch: core:  1, cta: 5 initialized @(6,0)
GPGPU-Sim uArch: core:  2, cta: 5 initialized @(6,0)
GPGPU-Sim uArch: core:  3, cta: 5 initialized @(6,0)
GPGPU-Sim uArch: core:  4, cta: 5 initialized @(6,0)
GPGPU-Sim uArch: core:  5, cta: 5 initialized @(6,0)
GPGPU-Sim uArch: core:  6, cta: 5 initialized @(6,0)
GPGPU-Sim uArch: core:  7, cta: 5 initialized @(6,0)
GPGPU-Sim uArch: core:  8, cta: 5 initialized @(6,0)
GPGPU-Sim uArch: core:  9, cta: 5 initialized @(6,0)
GPGPU-Sim uArch: core: 10, cta: 5 initialized @(6,0)
GPGPU-Sim uArch: core: 11, cta: 5 initialized @(6,0)
GPGPU-Sim uArch: core: 12, cta: 5 initialized @(6,0)
GPGPU-Sim uArch: core: 13, cta: 5 initialized @(6,0)
GPGPU-Sim uArch: core: 14, cta: 5 initialized @(6,0)
GPGPU-Sim uArch: core:  0, cta: 5 initialized @(6,0)
GPGPU-Sim PTX: 100000 instructions simulated : ctaid=(68,0,0) tid=(63,0,0)
GPGPU-Sim uArch: cycles simulated: 500  inst.: 91648 (ipc=183.3) sim_rate=45824 (inst/sec) elapsed = 0:0:00:02 / Sun Feb 28 20:30:19 2016
GPGPU-Sim PTX: 200000 instructions simulated : ctaid=(53,0,0) tid=(95,0,0)
GPGPU-Sim PTX: 300000 instructions simulated : ctaid=(83,0,0) tid=(253,0,0)
GPGPU-Sim uArch: Shader 1 finished CTA #3 (1310,0), 5 CTAs running
GPGPU-Sim uArch: core:  1, cta: 3 initialized @(1311,0)
GPGPU-Sim uArch: Shader 2 finished CTA #0 (1313,0), 5 CTAs running
GPGPU-Sim uArch: core:  2, cta: 0 initialized @(1314,0)
GPGPU-Sim uArch: Shader 2 finished CTA #3 (1321,0), 5 CTAs running
GPGPU-Sim uArch: Shader 2 finished CTA #4 (1321,0), 4 CTAs running
GPGPU-Sim uArch: core:  2, cta: 3 initialized @(1322,0)
GPGPU-Sim uArch: core:  2, cta: 4 initialized @(1323,0)
GPGPU-Sim uArch: Shader 0 finished CTA #2 (1323,0), 5 CTAs running
GPGPU-Sim uArch: core:  0, cta: 2 initialized @(1324,0)
GPGPU-Sim uArch: Shader 1 finished CTA #4 (1326,0), 5 CTAs running
GPGPU-Sim uArch: core:  1, cta: 4 initialized @(1327,0)
GPGPU-Sim uArch: Shader 5 finished CTA #2 (1329,0), 5 CTAs running
GPGPU-Sim uArch: Shader 5 finished CTA #0 (1329,0), 4 CTAs running
GPGPU-Sim uArch: core:  5, cta: 0 initialized @(1330,0)
GPGPU-Sim uArch: core:  5, cta: 2 initialized @(1331,0)
GPGPU-Sim uArch: Shader 0 finished CTA #3 (1332,0), 5 CTAs running
GPGPU-Sim uArch: Shader 0 finished CTA #0 (1332,0), 4 CTAs running
GPGPU-Sim uArch: core:  0, cta: 0 initialized @(1333,0)
GPGPU-Sim uArch: core:  0, cta: 3 initialized @(1334,0)
GPGPU-Sim uArch: Shader 4 finished CTA #0 (1335,0), 5 CTAs running
GPGPU-Sim uArch: core:  4, cta: 0 initialized @(1336,0)
GPGPU-Sim uArch: Shader 4 finished CTA #2 (1339,0), 5 CTAs running
GPGPU-Sim uArch: core:  4, cta: 2 initialized @(1340,0)
GPGPU-Sim uArch: Shader 9 finished CTA #0 (1349,0), 5 CTAs running
GPGPU-Sim uArch: Shader 9 finished CTA #1 (1349,0), 4 CTAs running
GPGPU-Sim uArch: Shader 9 finished CTA #4 (1349,0), 3 CTAs running
GPGPU-Sim uArch: core:  9, cta: 0 initialized @(1350,0)
GPGPU-Sim uArch: Shader 5 finished CTA #3 (1350,0), 5 CTAs running
GPGPU-Sim uArch: core:  5, cta: 3 initialized @(1351,0)
GPGPU-Sim uArch: core:  9, cta: 1 initialized @(1351,0)
GPGPU-Sim uArch: core:  9, cta: 4 initialized @(1352,0)
GPGPU-Sim uArch: Shader 6 finished CTA #1 (1355,0), 5 CTAs running
GPGPU-Sim uArch: Shader 6 finished CTA #2 (1355,0), 4 CTAs running
GPGPU-Sim uArch: core:  6, cta: 1 initialized @(1356,0)
GPGPU-Sim uArch: core:  6, cta: 2 initialized @(1357,0)
GPGPU-Sim uArch: Shader 4 finished CTA #3 (1359,0), 5 CTAs running
GPGPU-Sim uArch: core:  4, cta: 3 initialized @(1360,0)
GPGPU-Sim uArch: Shader 1 finished CTA #1 (1361,0), 5 CTAs running
GPGPU-Sim uArch: Shader 2 finished CTA #1 (1361,0), 5 CTAs running
GPGPU-Sim uArch: core:  1, cta: 1 initialized @(1362,0)
GPGPU-Sim uArch: core:  2, cta: 1 initialized @(1362,0)
GPGPU-Sim uArch: Shader 7 finished CTA #1 (1362,0), 5 CTAs running
GPGPU-Sim uArch: Shader 7 finished CTA #2 (1362,0), 4 CTAs running
GPGPU-Sim uArch: Shader 7 finished CTA #5 (1362,0), 3 CTAs running
GPGPU-Sim uArch: core:  7, cta: 1 initialized @(1363,0)
GPGPU-Sim uArch: core:  7, cta: 2 initialized @(1364,0)
GPGPU-Sim uArch: Shader 14 finished CTA #3 (1364,0), 5 CTAs running
GPGPU-Sim uArch: Shader 14 finished CTA #0 (1364,0), 4 CTAs running
GPGPU-Sim uArch: core: 14, cta: 0 initialized @(1365,0)
GPGPU-Sim uArch: core:  7, cta: 5 initialized @(1365,0)
GPGPU-Sim uArch: core: 14, cta: 3 initialized @(1366,0)
GPGPU-Sim uArch: Shader 6 finished CTA #5 (1372,0), 5 CTAs running
GPGPU-Sim uArch: Shader 6 finished CTA #0 (1372,0), 4 CTAs running
GPGPU-Sim uArch: core:  6, cta: 0 initialized @(1373,0)
GPGPU-Sim uArch: core:  6, cta: 5 initialized @(1374,0)
GPGPU-Sim uArch: Shader 9 finished CTA #5 (1376,0), 5 CTAs running
GPGPU-Sim uArch: core:  9, cta: 5 initialized @(1377,0)
GPGPU-Sim uArch: Shader 14 finished CTA #4 (1377,0), 5 CTAs running
GPGPU-Sim uArch: core: 14, cta: 4 initialized @(1378,0)
GPGPU-Sim uArch: Shader 12 finished CTA #3 (1380,0), 5 CTAs running
GPGPU-Sim uArch: Shader 12 finished CTA #4 (1380,0), 4 CTAs running
GPGPU-Sim uArch: Shader 12 finished CTA #0 (1380,0), 3 CTAs running
GPGPU-Sim uArch: core: 12, cta: 0 initialized @(1381,0)
GPGPU-Sim uArch: core: 12, cta: 3 initialized @(1382,0)
GPGPU-Sim uArch: Shader 11 finished CTA #0 (1382,0), 5 CTAs running
GPGPU-Sim uArch: Shader 11 finished CTA #1 (1382,0), 4 CTAs running
GPGPU-Sim uArch: core: 11, cta: 0 initialized @(1383,0)
GPGPU-Sim uArch: core: 12, cta: 4 initialized @(1383,0)
GPGPU-Sim uArch: core: 11, cta: 1 initialized @(1384,0)
GPGPU-Sim uArch: Shader 13 finished CTA #3 (1388,0), 5 CTAs running
GPGPU-Sim uArch: Shader 13 finished CTA #4 (1388,0), 4 CTAs running
GPGPU-Sim uArch: Shader 13 finished CTA #0 (1388,0), 3 CTAs running
GPGPU-Sim uArch: core: 13, cta: 0 initialized @(1389,0)
GPGPU-Sim uArch: core: 13, cta: 3 initialized @(1390,0)
GPGPU-Sim uArch: Shader 7 finished CTA #0 (1390,0), 5 CTAs running
GPGPU-Sim uArch: core:  7, cta: 0 initialized @(1391,0)
GPGPU-Sim uArch: core: 13, cta: 4 initialized @(1391,0)
GPGPU-Sim uArch: Shader 5 finished CTA #1 (1394,0), 5 CTAs running
GPGPU-Sim uArch: Shader 10 finished CTA #0 (1394,0), 5 CTAs running
GPGPU-Sim uArch: Shader 10 finished CTA #1 (1394,0), 4 CTAs running
GPGPU-Sim uArch: core:  5, cta: 1 initialized @(1395,0)
GPGPU-Sim uArch: core: 10, cta: 0 initialized @(1395,0)
GPGPU-Sim uArch: core: 10, cta: 1 initialized @(1396,0)
GPGPU-Sim uArch: Shader 10 finished CTA #4 (1398,0), 5 CTAs running
GPGPU-Sim uArch: core: 10, cta: 4 initialized @(1399,0)
GPGPU-Sim uArch: Shader 8 finished CTA #1 (1400,0), 5 CTAs running
GPGPU-Sim uArch: Shader 8 finished CTA #2 (1400,0), 4 CTAs running
GPGPU-Sim uArch: Shader 8 finished CTA #5 (1400,0), 3 CTAs running
GPGPU-Sim uArch: core:  8, cta: 1 initialized @(1401,0)
GPGPU-Sim uArch: core:  8, cta: 2 initialized @(1402,0)
GPGPU-Sim uArch: core:  8, cta: 5 initialized @(1403,0)
GPGPU-Sim uArch: Shader 3 finished CTA #2 (1406,0), 5 CTAs running
GPGPU-Sim uArch: Shader 3 finished CTA #3 (1406,0), 4 CTAs running
GPGPU-Sim uArch: Shader 3 finished CTA #0 (1406,0), 3 CTAs running
GPGPU-Sim uArch: core:  3, cta: 0 initialized @(1407,0)
GPGPU-Sim uArch: core:  3, cta: 2 initialized @(1408,0)
GPGPU-Sim uArch: core:  3, cta: 3 initialized @(1409,0)
GPGPU-Sim uArch: Shader 11 finished CTA #4 (1409,0), 5 CTAs running
GPGPU-Sim uArch: Shader 11 finished CTA #5 (1409,0), 4 CTAs running
GPGPU-Sim uArch: Shader 14 finished CTA #1 (1409,0), 5 CTAs running
GPGPU-Sim uArch: core: 11, cta: 4 initialized @(1410,0)
GPGPU-Sim uArch: core: 14, cta: 1 initialized @(1410,0)
GPGPU-Sim uArch: Shader 0 finished CTA #1 (1410,0), 5 CTAs running
GPGPU-Sim uArch: core:  0, cta: 1 initialized @(1411,0)
GPGPU-Sim uArch: core: 11, cta: 5 initialized @(1411,0)
GPGPU-Sim uArch: Shader 3 finished CTA #1 (1415,0), 5 CTAs running
GPGPU-Sim uArch: core:  3, cta: 1 initialized @(1416,0)
GPGPU-Sim uArch: Shader 12 finished CTA #1 (1416,0), 5 CTAs running
GPGPU-Sim uArch: Shader 13 finished CTA #1 (1416,0), 5 CTAs running
GPGPU-Sim uArch: core: 12, cta: 1 initialized @(1417,0)
GPGPU-Sim uArch: core: 13, cta: 1 initialized @(1417,0)
GPGPU-Sim uArch: Shader 4 finished CTA #1 (1421,0), 5 CTAs running
GPGPU-Sim uArch: core:  4, cta: 1 initialized @(1422,0)
GPGPU-Sim uArch: Shader 10 finished CTA #5 (1422,0), 5 CTAs running
GPGPU-Sim uArch: core: 10, cta: 5 initialized @(1423,0)
GPGPU-Sim uArch: Shader 8 finished CTA #0 (1425,0), 5 CTAs running
GPGPU-Sim uArch: core:  8, cta: 0 initialized @(1426,0)
GPGPU-Sim uArch: Shader 2 finished CTA #2 (1451,0), 5 CTAs running
GPGPU-Sim uArch: Shader 12 finished CTA #2 (1451,0), 5 CTAs running
GPGPU-Sim uArch: core: 12, cta: 2 initialized @(1452,0)
GPGPU-Sim uArch: core:  2, cta: 2 initialized @(1452,0)
GPGPU-Sim PTX: 400000 instructions simulated : ctaid=(129,0,0) tid=(21,0,0)
GPGPU-Sim uArch: Shader 1 finished CTA #2 (1459,0), 5 CTAs running
GPGPU-Sim uArch: core:  1, cta: 2 initialized @(1460,0)
GPGPU-Sim uArch: Shader 11 finished CTA #2 (1461,0), 5 CTAs running
GPGPU-Sim uArch: core: 11, cta: 2 initialized @(1462,0)
GPGPU-Sim uArch: Shader 14 finished CTA #2 (1486,0), 5 CTAs running
GPGPU-Sim uArch: core: 14, cta: 2 initialized @(1487,0)
GPGPU-Sim uArch: cycles simulated: 1500  inst.: 401032 (ipc=267.4) sim_rate=133677 (inst/sec) elapsed = 0:0:00:03 / Sun Feb 28 20:30:20 2016
GPGPU-Sim uArch: Shader 5 finished CTA #4 (1504,0), 5 CTAs running
GPGPU-Sim uArch: core:  5, cta: 4 initialized @(1505,0)
GPGPU-Sim uArch: Shader 9 finished CTA #2 (1507,0), 5 CTAs running
GPGPU-Sim uArch: Shader 9 finished CTA #3 (1507,0), 4 CTAs running
GPGPU-Sim uArch: core:  9, cta: 2 initialized @(1508,0)
GPGPU-Sim uArch: core:  9, cta: 3 initialized @(1509,0)
GPGPU-Sim uArch: Shader 10 finished CTA #2 (1516,0), 5 CTAs running
GPGPU-Sim uArch: core: 10, cta: 2 initialized @(1517,0)
GPGPU-Sim uArch: Shader 7 finished CTA #3 (1540,0), 5 CTAs running
GPGPU-Sim uArch: core:  7, cta: 3 initialized @(1541,0)
GPGPU-Sim uArch: Shader 4 finished CTA #4 (1541,0), 5 CTAs running
GPGPU-Sim uArch: core:  4, cta: 4 initialized @(1542,0)
GPGPU-Sim uArch: Shader 0 finished CTA #4 (1543,0), 5 CTAs running
GPGPU-Sim uArch: core:  0, cta: 4 initialized @(1544,0)
GPGPU-Sim uArch: Shader 11 finished CTA #3 (1550,0), 5 CTAs running
GPGPU-Sim uArch: core: 11, cta: 3 initialized @(1551,0)
GPGPU-Sim uArch: Shader 1 finished CTA #5 (1552,0), 5 CTAs running
GPGPU-Sim uArch: core:  1, cta: 5 initialized @(1553,0)
GPGPU-Sim uArch: Shader 6 finished CTA #3 (1553,0), 5 CTAs running
GPGPU-Sim uArch: Shader 6 finished CTA #4 (1553,0), 4 CTAs running
GPGPU-Sim uArch: core:  6, cta: 3 initialized @(1554,0)
GPGPU-Sim uArch: Shader 8 finished CTA #3 (1554,0), 5 CTAs running
GPGPU-Sim uArch: core:  8, cta: 3 initialized @(1555,0)
GPGPU-Sim uArch: core:  6, cta: 4 initialized @(1555,0)
GPGPU-Sim uArch: Shader 10 finished CTA #3 (1559,0), 5 CTAs running
GPGPU-Sim uArch: core: 10, cta: 3 initialized @(1560,0)
GPGPU-Sim uArch: Shader 0 finished CTA #5 (1569,0), 5 CTAs running
GPGPU-Sim uArch: Shader 3 finished CTA #4 (1569,0), 5 CTAs running
GPGPU-Sim uArch: core:  0, cta: 5 initialized @(1570,0)
GPGPU-Sim uArch: core:  3, cta: 4 initialized @(1570,0)
GPGPU-Sim PTX: 500000 instructions simulated : ctaid=(150,0,0) tid=(117,0,0)
GPGPU-Sim uArch: Shader 2 finished CTA #5 (1576,0), 5 CTAs running
GPGPU-Sim uArch: core:  2, cta: 5 initialized @(1577,0)
GPGPU-Sim uArch: Shader 13 finished CTA #2 (1579,0), 5 CTAs running
GPGPU-Sim uArch: core: 13, cta: 2 initialized @(1580,0)
GPGPU-Sim uArch: Shader 8 finished CTA #4 (1598,0), 5 CTAs running
GPGPU-Sim uArch: core:  8, cta: 4 initialized @(1599,0)
GPGPU-Sim uArch: Shader 5 finished CTA #5 (1599,0), 5 CTAs running
GPGPU-Sim uArch: Shader 7 finished CTA #4 (1599,0), 5 CTAs running
GPGPU-Sim uArch: core:  5, cta: 5 initialized @(1600,0)
GPGPU-Sim uArch: core:  7, cta: 4 initialized @(1600,0)
GPGPU-Sim uArch: Shader 4 finished CTA #5 (1601,0), 5 CTAs running
GPGPU-Sim uArch: core:  4, cta: 5 initialized @(1602,0)
GPGPU-Sim uArch: Shader 12 finished CTA #5 (1609,0), 5 CTAs running
GPGPU-Sim uArch: core: 12, cta: 5 initialized @(1610,0)
GPGPU-Sim uArch: Shader 3 finished CTA #5 (1617,0), 5 CTAs running
GPGPU-Sim uArch: core:  3, cta: 5 initialized @(1618,0)
GPGPU-Sim uArch: Shader 13 finished CTA #5 (1626,0), 5 CTAs running
GPGPU-Sim uArch: core: 13, cta: 5 initialized @(1627,0)
GPGPU-Sim uArch: Shader 14 finished CTA #5 (1627,0), 5 CTAs running
GPGPU-Sim uArch: core: 14, cta: 5 initialized @(1628,0)
GPGPU-Sim PTX: 600000 instructions simulated : ctaid=(175,0,0) tid=(77,0,0)
GPGPU-Sim uArch: Shader 1 finished CTA #3 (1730,0), 5 CTAs running
GPGPU-Sim uArch: core:  1, cta: 3 initialized @(1731,0)
GPGPU-Sim uArch: Shader 0 finished CTA #2 (1757,0), 5 CTAs running
GPGPU-Sim uArch: core:  0, cta: 2 initialized @(1758,0)
GPGPU-Sim uArch: Shader 4 finished CTA #0 (1795,0), 5 CTAs running
GPGPU-Sim uArch: core:  4, cta: 0 initialized @(1796,0)
GPGPU-Sim uArch: Shader 1 finished CTA #4 (1796,0), 5 CTAs running
GPGPU-Sim uArch: core:  1, cta: 4 initialized @(1797,0)
GPGPU-Sim uArch: Shader 5 finished CTA #0 (1802,0), 5 CTAs running
GPGPU-Sim uArch: core:  5, cta: 0 initialized @(1803,0)
GPGPU-Sim uArch: Shader 2 finished CTA #0 (1812,0), 5 CTAs running
GPGPU-Sim uArch: core:  2, cta: 0 initialized @(1813,0)
GPGPU-Sim uArch: Shader 2 finished CTA #3 (1821,0), 5 CTAs running
GPGPU-Sim uArch: core:  2, cta: 3 initialized @(1822,0)
GPGPU-Sim uArch: Shader 6 finished CTA #1 (1831,0), 5 CTAs running
GPGPU-Sim uArch: core:  6, cta: 1 initialized @(1832,0)
GPGPU-Sim uArch: Shader 5 finished CTA #2 (1837,0), 5 CTAs running
GPGPU-Sim uArch: core:  5, cta: 2 initialized @(1838,0)
GPGPU-Sim uArch: Shader 9 finished CTA #0 (1843,0), 5 CTAs running
GPGPU-Sim uArch: core:  9, cta: 0 initialized @(1844,0)
GPGPU-Sim uArch: Shader 9 finished CTA #1 (1857,0), 5 CTAs running
GPGPU-Sim uArch: core:  9, cta: 1 initialized @(1858,0)
GPGPU-Sim uArch: Shader 6 finished CTA #2 (1866,0), 5 CTAs running
GPGPU-Sim uArch: core:  6, cta: 2 initialized @(1867,0)
GPGPU-Sim uArch: Shader 4 finished CTA #2 (1868,0), 5 CTAs running
GPGPU-Sim uArch: Shader 7 finished CTA #2 (1868,0), 5 CTAs running
GPGPU-Sim uArch: core:  7, cta: 2 initialized @(1869,0)
GPGPU-Sim uArch: core:  4, cta: 2 initialized @(1869,0)
GPGPU-Sim uArch: Shader 1 finished CTA #1 (1876,0), 5 CTAs running
GPGPU-Sim uArch: core:  1, cta: 1 initialized @(1877,0)
GPGPU-Sim uArch: Shader 14 finished CTA #4 (1898,0), 5 CTAs running
GPGPU-Sim uArch: core: 14, cta: 4 initialized @(1899,0)
GPGPU-Sim uArch: Shader 2 finished CTA #4 (1901,0), 5 CTAs running
GPGPU-Sim uArch: core:  2, cta: 4 initialized @(1902,0)
GPGPU-Sim uArch: Shader 11 finished CTA #1 (1904,0), 5 CTAs running
GPGPU-Sim uArch: core: 11, cta: 1 initialized @(1905,0)
GPGPU-Sim uArch: Shader 4 finished CTA #3 (1905,0), 5 CTAs running
GPGPU-Sim uArch: core:  4, cta: 3 initialized @(1906,0)
GPGPU-Sim uArch: Shader 12 finished CTA #3 (1906,0), 5 CTAs running
GPGPU-Sim uArch: core: 12, cta: 3 initialized @(1907,0)
GPGPU-Sim uArch: Shader 9 finished CTA #4 (1914,0), 5 CTAs running
GPGPU-Sim uArch: core:  9, cta: 4 initialized @(1915,0)
GPGPU-Sim uArch: Shader 0 finished CTA #0 (1918,0), 5 CTAs running
GPGPU-Sim uArch: core:  0, cta: 0 initialized @(1919,0)
GPGPU-Sim uArch: Shader 7 finished CTA #1 (1919,0), 5 CTAs running
GPGPU-Sim uArch: core:  7, cta: 1 initialized @(1920,0)
GPGPU-Sim uArch: Shader 6 finished CTA #0 (1941,0), 5 CTAs running
GPGPU-Sim uArch: core:  6, cta: 0 initialized @(1942,0)
GPGPU-Sim uArch: Shader 12 finished CTA #0 (1943,0), 5 CTAs running
GPGPU-Sim uArch: core: 12, cta: 0 initialized @(1944,0)
GPGPU-Sim uArch: Shader 14 finished CTA #0 (1950,0), 5 CTAs running
GPGPU-Sim uArch: core: 14, cta: 0 initialized @(1951,0)
GPGPU-Sim uArch: Shader 0 finished CTA #3 (1955,0), 5 CTAs running
GPGPU-Sim uArch: core:  0, cta: 3 initialized @(1956,0)
GPGPU-Sim uArch: Shader 5 finished CTA #3 (1956,0), 5 CTAs running
GPGPU-Sim uArch: core:  5, cta: 3 initialized @(1957,0)
GPGPU-Sim PTX: 700000 instructions simulated : ctaid=(193,0,0) tid=(173,0,0)
GPGPU-Sim uArch: Shader 11 finished CTA #0 (1965,0), 5 CTAs running
GPGPU-Sim uArch: core: 11, cta: 0 initialized @(1966,0)
GPGPU-Sim uArch: Shader 6 finished CTA #5 (1972,0), 5 CTAs running
GPGPU-Sim uArch: core:  6, cta: 5 initialized @(1973,0)
GPGPU-Sim uArch: Shader 13 finished CTA #0 (1974,0), 5 CTAs running
GPGPU-Sim uArch: core: 13, cta: 0 initialized @(1975,0)
GPGPU-Sim uArch: Shader 10 finished CTA #0 (1980,0), 5 CTAs running
GPGPU-Sim uArch: core: 10, cta: 0 initialized @(1981,0)
GPGPU-Sim uArch: Shader 13 finished CTA #3 (1984,0), 5 CTAs running
GPGPU-Sim uArch: core: 13, cta: 3 initialized @(1985,0)
GPGPU-Sim uArch: Shader 14 finished CTA #3 (1996,0), 5 CTAs running
GPGPU-Sim uArch: core: 14, cta: 3 initialized @(1997,0)
GPGPU-Sim uArch: Shader 2 finished CTA #1 (2001,0), 5 CTAs running
GPGPU-Sim uArch: core:  2, cta: 1 initialized @(2002,0)
GPGPU-Sim uArch: Shader 9 finished CTA #5 (2006,0), 5 CTAs running
GPGPU-Sim uArch: core:  9, cta: 5 initialized @(2007,0)
GPGPU-Sim uArch: Shader 7 finished CTA #5 (2010,0), 5 CTAs running
GPGPU-Sim uArch: core:  7, cta: 5 initialized @(2011,0)
GPGPU-Sim uArch: Shader 12 finished CTA #4 (2018,0), 5 CTAs running
GPGPU-Sim uArch: core: 12, cta: 4 initialized @(2019,0)
GPGPU-Sim uArch: Shader 10 finished CTA #1 (2021,0), 5 CTAs running
GPGPU-Sim uArch: core: 10, cta: 1 initialized @(2022,0)
GPGPU-Sim uArch: Shader 7 finished CTA #0 (2037,0), 5 CTAs running
GPGPU-Sim uArch: core:  7, cta: 0 initialized @(2038,0)
GPGPU-Sim uArch: Shader 0 finished CTA #1 (2039,0), 5 CTAs running
GPGPU-Sim uArch: core:  0, cta: 1 initialized @(2040,0)
GPGPU-Sim uArch: Shader 5 finished CTA #4 (2042,0), 5 CTAs running
GPGPU-Sim uArch: core:  5, cta: 4 initialized @(2043,0)
GPGPU-Sim uArch: Shader 8 finished CTA #1 (2046,0), 5 CTAs running
GPGPU-Sim uArch: core:  8, cta: 1 initialized @(2047,0)
GPGPU-Sim uArch: Shader 13 finished CTA #4 (2051,0), 5 CTAs running
GPGPU-Sim uArch: core: 13, cta: 4 initialized @(2052,0)
GPGPU-Sim uArch: Shader 11 finished CTA #5 (2057,0), 5 CTAs running
GPGPU-Sim uArch: core: 11, cta: 5 initialized @(2058,0)
GPGPU-Sim uArch: Shader 5 finished CTA #1 (2081,0), 5 CTAs running
GPGPU-Sim uArch: core:  5, cta: 1 initialized @(2082,0)
GPGPU-Sim uArch: Shader 10 finished CTA #4 (2089,0), 5 CTAs running
GPGPU-Sim uArch: core: 10, cta: 4 initialized @(2090,0)
GPGPU-Sim uArch: Shader 12 finished CTA #1 (2092,0), 5 CTAs running
GPGPU-Sim uArch: core: 12, cta: 1 initialized @(2093,0)
GPGPU-Sim uArch: Shader 9 finished CTA #2 (2097,0), 5 CTAs running
GPGPU-Sim uArch: core:  9, cta: 2 initialized @(2098,0)
GPGPU-Sim uArch: Shader 3 finished CTA #1 (2098,0), 5 CTAs running
GPGPU-Sim uArch: core:  3, cta: 1 initialized @(2099,0)
GPGPU-Sim uArch: Shader 14 finished CTA #1 (2106,0), 5 CTAs running
GPGPU-Sim uArch: core: 14, cta: 1 initialized @(2107,0)
GPGPU-Sim uArch: Shader 11 finished CTA #2 (2116,0), 5 CTAs running
GPGPU-Sim uArch: core: 11, cta: 2 initialized @(2117,0)
GPGPU-Sim uArch: Shader 2 finished CTA #5 (2119,0), 5 CTAs running
GPGPU-Sim uArch: core:  2, cta: 5 initialized @(2120,0)
GPGPU-Sim PTX: 800000 instructions simulated : ctaid=(226,0,0) tid=(139,0,0)
GPGPU-Sim uArch: Shader 0 finished CTA #5 (2126,0), 5 CTAs running
GPGPU-Sim uArch: core:  0, cta: 5 initialized @(2127,0)
GPGPU-Sim uArch: Shader 13 finished CTA #1 (2132,0), 5 CTAs running
GPGPU-Sim uArch: core: 13, cta: 1 initialized @(2133,0)
GPGPU-Sim uArch: Shader 6 finished CTA #4 (2134,0), 5 CTAs running
GPGPU-Sim uArch: Shader 14 finished CTA #2 (2134,0), 5 CTAs running
GPGPU-Sim uArch: core: 14, cta: 2 initialized @(2135,0)
GPGPU-Sim uArch: core:  6, cta: 4 initialized @(2135,0)
GPGPU-Sim uArch: Shader 8 finished CTA #3 (2140,0), 5 CTAs running
GPGPU-Sim uArch: core:  8, cta: 3 initialized @(2141,0)
GPGPU-Sim uArch: Shader 9 finished CTA #3 (2141,0), 5 CTAs running
GPGPU-Sim uArch: core:  9, cta: 3 initialized @(2142,0)
GPGPU-Sim uArch: Shader 14 finished CTA #5 (2142,0), 5 CTAs running
GPGPU-Sim uArch: core: 14, cta: 5 initialized @(2143,0)
GPGPU-Sim uArch: Shader 1 finished CTA #3 (2152,0), 5 CTAs running
GPGPU-Sim uArch: core:  1, cta: 3 initialized @(2153,0)
GPGPU-Sim uArch: Shader 10 finished CTA #3 (2160,0), 5 CTAs running
GPGPU-Sim uArch: core: 10, cta: 3 initialized @(2161,0)
GPGPU-Sim uArch: Shader 10 finished CTA #2 (2191,0), 5 CTAs running
GPGPU-Sim uArch: core: 10, cta: 2 initialized @(2192,0)
GPGPU-Sim uArch: Shader 3 finished CTA #4 (2196,0), 5 CTAs running
GPGPU-Sim uArch: core:  3, cta: 4 initialized @(2197,0)
GPGPU-Sim uArch: Shader 3 finished CTA #0 (2200,0), 5 CTAs running
GPGPU-Sim uArch: core:  3, cta: 0 initialized @(2201,0)
GPGPU-Sim uArch: Shader 4 finished CTA #0 (2210,0), 5 CTAs running
GPGPU-Sim uArch: core:  4, cta: 0 initialized @(2211,0)
GPGPU-Sim uArch: Shader 0 finished CTA #2 (2212,0), 5 CTAs running
GPGPU-Sim uArch: core:  0, cta: 2 initialized @(2213,0)
GPGPU-Sim uArch: Shader 13 finished CTA #5 (2219,0), 5 CTAs running
GPGPU-Sim uArch: core: 13, cta: 5 initialized @(2220,0)
GPGPU-Sim uArch: Shader 0 finished CTA #4 (2231,0), 5 CTAs running
GPGPU-Sim uArch: Shader 8 finished CTA #5 (2231,0), 5 CTAs running
GPGPU-Sim uArch: core:  0, cta: 4 initialized @(2232,0)
GPGPU-Sim uArch: core:  8, cta: 5 initialized @(2232,0)
GPGPU-Sim uArch: Shader 3 finished CTA #2 (2241,0), 5 CTAs running
GPGPU-Sim uArch: Shader 3 finished CTA #3 (2241,0), 4 CTAs running
GPGPU-Sim uArch: core:  3, cta: 2 initialized @(2242,0)
GPGPU-Sim uArch: core:  3, cta: 3 initialized @(2243,0)
GPGPU-Sim uArch: Shader 3 finished CTA #5 (2249,0), 5 CTAs running
GPGPU-Sim uArch: core:  3, cta: 5 initialized @(2250,0)
GPGPU-Sim uArch: Shader 7 finished CTA #2 (2250,0), 5 CTAs running
GPGPU-Sim uArch: core:  7, cta: 2 initialized @(2251,0)
GPGPU-Sim uArch: Shader 8 finished CTA #2 (2255,0), 5 CTAs running
GPGPU-Sim uArch: core:  8, cta: 2 initialized @(2256,0)
GPGPU-Sim uArch: Shader 12 finished CTA #2 (2261,0), 5 CTAs running
GPGPU-Sim uArch: core: 12, cta: 2 initialized @(2262,0)
GPGPU-Sim uArch: Shader 9 finished CTA #0 (2262,0), 5 CTAs running
GPGPU-Sim uArch: core:  9, cta: 0 initialized @(2263,0)
GPGPU-Sim uArch: Shader 1 finished CTA #1 (2264,0), 5 CTAs running
GPGPU-Sim uArch: Shader 8 finished CTA #0 (2264,0), 5 CTAs running
GPGPU-Sim uArch: Shader 1 finished CTA #2 (2268,0), 4 CTAs running
GPGPU-Sim uArch: Shader 5 finished CTA #5 (2286,0), 5 CTAs running
GPGPU-Sim uArch: Shader 10 finished CTA #5 (2289,0), 5 CTAs running
GPGPU-Sim uArch: Shader 2 finished CTA #2 (2293,0), 5 CTAs running
GPGPU-Sim uArch: Shader 4 finished CTA #2 (2297,0), 5 CTAs running
GPGPU-Sim PTX: 900000 instructions simulated : ctaid=(255,0,0) tid=(203,0,0)
GPGPU-Sim uArch: Shader 11 finished CTA #4 (2305,0), 5 CTAs running
GPGPU-Sim uArch: Shader 1 finished CTA #5 (2311,0), 3 CTAs running
GPGPU-Sim uArch: Shader 6 finished CTA #2 (2312,0), 5 CTAs running
GPGPU-Sim uArch: Shader 7 finished CTA #4 (2319,0), 5 CTAs running
GPGPU-Sim uArch: Shader 4 finished CTA #1 (2320,0), 4 CTAs running
GPGPU-Sim uArch: Shader 9 finished CTA #1 (2325,0), 5 CTAs running
GPGPU-Sim uArch: Shader 0 finished CTA #0 (2330,0), 5 CTAs running
GPGPU-Sim uArch: Shader 7 finished CTA #1 (2351,0), 4 CTAs running
GPGPU-Sim uArch: Shader 12 finished CTA #0 (2364,0), 5 CTAs running
GPGPU-Sim uArch: Shader 7 finished CTA #3 (2365,0), 3 CTAs running
GPGPU-Sim uArch: Shader 14 finished CTA #0 (2365,0), 5 CTAs running
GPGPU-Sim uArch: Shader 0 finished CTA #3 (2370,0), 4 CTAs running
GPGPU-Sim uArch: Shader 6 finished CTA #0 (2372,0), 4 CTAs running
GPGPU-Sim uArch: Shader 2 finished CTA #0 (2378,0), 4 CTAs running
GPGPU-Sim uArch: Shader 6 finished CTA #3 (2379,0), 3 CTAs running
GPGPU-Sim uArch: Shader 2 finished CTA #1 (2385,0), 3 CTAs running
GPGPU-Sim uArch: Shader 13 finished CTA #2 (2390,0), 5 CTAs running
GPGPU-Sim uArch: Shader 4 finished CTA #4 (2392,0), 3 CTAs running
GPGPU-Sim uArch: Shader 7 finished CTA #5 (2402,0), 2 CTAs running
GPGPU-Sim uArch: Shader 11 finished CTA #3 (2408,0), 4 CTAs running
GPGPU-Sim uArch: Shader 8 finished CTA #4 (2424,0), 4 CTAs running
GPGPU-Sim uArch: Shader 12 finished CTA #4 (2432,0), 4 CTAs running
GPGPU-Sim uArch: Shader 9 finished CTA #5 (2433,0), 4 CTAs running
GPGPU-Sim uArch: Shader 10 finished CTA #1 (2433,0), 4 CTAs running
GPGPU-Sim uArch: Shader 4 finished CTA #5 (2438,0), 2 CTAs running
GPGPU-Sim uArch: Shader 2 finished CTA #3 (2443,0), 2 CTAs running
GPGPU-Sim uArch: Shader 1 finished CTA #4 (2445,0), 2 CTAs running
GPGPU-Sim uArch: Shader 12 finished CTA #5 (2446,0), 3 CTAs running
GPGPU-Sim uArch: Shader 11 finished CTA #1 (2449,0), 3 CTAs running
GPGPU-Sim uArch: Shader 5 finished CTA #0 (2462,0), 4 CTAs running
GPGPU-Sim uArch: Shader 4 finished CTA #3 (2480,0), 1 CTAs running
GPGPU-Sim uArch: Shader 12 finished CTA #1 (2486,0), 2 CTAs running
GPGPU-Sim uArch: Shader 5 finished CTA #2 (2490,0), 3 CTAs running
GPGPU-Sim uArch: Shader 2 finished CTA #4 (2497,0), 1 CTAs running
GPGPU-Sim uArch: Shader 14 finished CTA #3 (2499,0), 4 CTAs running
GPGPU-Sim uArch: cycles simulated: 2500  inst.: 872757 (ipc=349.1) sim_rate=218189 (inst/sec) elapsed = 0:0:00:04 / Sun Feb 28 20:30:21 2016
GPGPU-Sim uArch: Shader 6 finished CTA #1 (2517,0), 2 CTAs running
GPGPU-Sim uArch: Shader 5 finished CTA #1 (2518,0), 2 CTAs running
GPGPU-Sim uArch: Shader 9 finished CTA #2 (2519,0), 3 CTAs running
GPGPU-Sim uArch: Shader 3 finished CTA #1 (2521,0), 5 CTAs running
GPGPU-Sim uArch: Shader 6 finished CTA #5 (2524,0), 1 CTAs running
GPGPU-Sim uArch: Shader 9 finished CTA #4 (2526,0), 2 CTAs running
GPGPU-Sim uArch: Shader 10 finished CTA #4 (2540,0), 3 CTAs running
GPGPU-Sim uArch: Shader 12 finished CTA #3 (2547,0), 1 CTAs running
GPGPU-Sim uArch: Shader 1 finished CTA #3 (2552,0), 1 CTAs running
GPGPU-Sim uArch: Shader 8 finished CTA #3 (2554,0), 3 CTAs running
GPGPU-Sim uArch: Shader 5 finished CTA #4 (2558,0), 1 CTAs running
GPGPU-Sim uArch: Shader 14 finished CTA #1 (2564,0), 3 CTAs running
GPGPU-Sim uArch: Shader 14 finished CTA #4 (2574,0), 2 CTAs running
GPGPU-Sim uArch: Shader 9 finished CTA #3 (2577,0), 1 CTAs running
GPGPU-Sim uArch: Shader 13 finished CTA #0 (2589,0), 4 CTAs running
GPGPU-Sim uArch: Shader 10 finished CTA #0 (2602,0), 2 CTAs running
GPGPU-Sim uArch: Shader 11 finished CTA #0 (2606,0), 2 CTAs running
GPGPU-Sim uArch: Shader 14 finished CTA #5 (2618,0), 1 CTAs running
GPGPU-Sim uArch: Shader 10 finished CTA #3 (2621,0), 1 CTAs running
GPGPU-Sim uArch: Shader 8 finished CTA #1 (2627,0), 2 CTAs running
GPGPU-Sim uArch: Shader 0 finished CTA #5 (2631,0), 3 CTAs running
GPGPU-Sim uArch: Shader 8 finished CTA #5 (2634,0), 1 CTAs running
GPGPU-Sim uArch: Shader 10 finished CTA #2 (2643,0), 0 CTAs running
GPGPU-Sim uArch: Shader 10 empty (release kernel 1 '_Z6KernelP4NodePiPbS2_S1_S2_i').
GPGPU-Sim uArch: Shader 5 finished CTA #3 (2645,0), 0 CTAs running
GPGPU-Sim uArch: Shader 5 empty (release kernel 1 '_Z6KernelP4NodePiPbS2_S1_S2_i').
GPGPU-Sim uArch: Shader 7 finished CTA #2 (2658,0), 1 CTAs running
GPGPU-Sim uArch: Shader 0 finished CTA #1 (2661,0), 2 CTAs running
GPGPU-Sim uArch: Shader 13 finished CTA #1 (2663,0), 3 CTAs running
GPGPU-Sim uArch: Shader 4 finished CTA #0 (2668,0), 0 CTAs running
GPGPU-Sim uArch: Shader 4 empty (release kernel 1 '_Z6KernelP4NodePiPbS2_S1_S2_i').
GPGPU-Sim uArch: Shader 8 finished CTA #2 (2678,0), 0 CTAs running
GPGPU-Sim uArch: Shader 8 empty (release kernel 1 '_Z6KernelP4NodePiPbS2_S1_S2_i').
GPGPU-Sim uArch: Shader 7 finished CTA #0 (2681,0), 0 CTAs running
GPGPU-Sim uArch: Shader 7 empty (release kernel 1 '_Z6KernelP4NodePiPbS2_S1_S2_i').
GPGPU-Sim uArch: Shader 11 finished CTA #5 (2683,0), 1 CTAs running
GPGPU-Sim uArch: Shader 13 finished CTA #4 (2695,0), 2 CTAs running
GPGPU-Sim uArch: Shader 2 finished CTA #5 (2697,0), 0 CTAs running
GPGPU-Sim uArch: Shader 2 empty (release kernel 1 '_Z6KernelP4NodePiPbS2_S1_S2_i').
GPGPU-Sim uArch: Shader 0 finished CTA #2 (2698,0), 1 CTAs running
GPGPU-Sim uArch: Shader 13 finished CTA #3 (2702,0), 1 CTAs running
GPGPU-Sim uArch: Shader 11 finished CTA #2 (2718,0), 0 CTAs running
GPGPU-Sim uArch: Shader 11 empty (release kernel 1 '_Z6KernelP4NodePiPbS2_S1_S2_i').
GPGPU-Sim uArch: Shader 14 finished CTA #2 (2729,0), 0 CTAs running
GPGPU-Sim uArch: Shader 14 empty (release kernel 1 '_Z6KernelP4NodePiPbS2_S1_S2_i').
GPGPU-Sim uArch: Shader 6 finished CTA #4 (2737,0), 0 CTAs running
GPGPU-Sim uArch: Shader 6 empty (release kernel 1 '_Z6KernelP4NodePiPbS2_S1_S2_i').
GPGPU-Sim uArch: Shader 9 finished CTA #0 (2752,0), 0 CTAs running
GPGPU-Sim uArch: Shader 9 empty (release kernel 1 '_Z6KernelP4NodePiPbS2_S1_S2_i').
GPGPU-Sim uArch: Shader 12 finished CTA #2 (2754,0), 0 CTAs running
GPGPU-Sim uArch: Shader 12 empty (release kernel 1 '_Z6KernelP4NodePiPbS2_S1_S2_i').
GPGPU-Sim uArch: Shader 13 finished CTA #5 (2765,0), 0 CTAs running
GPGPU-Sim uArch: Shader 13 empty (release kernel 1 '_Z6KernelP4NodePiPbS2_S1_S2_i').
GPGPU-Sim uArch: Shader 0 finished CTA #4 (2774,0), 0 CTAs running
GPGPU-Sim uArch: Shader 0 empty (release kernel 1 '_Z6KernelP4NodePiPbS2_S1_S2_i').
GPGPU-Sim uArch: Shader 3 finished CTA #2 (2780,0), 4 CTAs running
GPGPU-Sim uArch: Shader 3 finished CTA #3 (2799,0), 3 CTAs running
GPGPU-Sim uArch: Shader 3 finished CTA #4 (2811,0), 2 CTAs running
GPGPU-Sim uArch: Shader 3 finished CTA #0 (2819,0), 1 CTAs running
GPGPU-Sim uArch: Shader 3 finished CTA #5 (2826,0), 0 CTAs running
GPGPU-Sim uArch: Shader 3 empty (release kernel 1 '_Z6KernelP4NodePiPbS2_S1_S2_i').
GPGPU-Sim uArch: Shader 1 finished CTA #0 (6125,0), 0 CTAs running
GPGPU-Sim uArch: Shader 1 empty (release kernel 1 '_Z6KernelP4NodePiPbS2_S1_S2_i').
GPGPU-Sim uArch: GPU detected kernel '_Z6KernelP4NodePiPbS2_S1_S2_i' finished on shader 1.
kernel_name = _Z6KernelP4NodePiPbS2_S1_S2_i 
kernel_launch_uid = 1 
gpu_sim_cycle = 6126
gpu_sim_insn = 917736
gpu_ipc =     149.8100
gpu_tot_sim_cycle = 6126
gpu_tot_sim_insn = 917736
gpu_tot_ipc =     149.8100
gpu_tot_issued_cta = 256
gpu_stall_dramfull = 327
gpu_stall_icnt2sh    = 155
gpu_total_sim_rate=229434

========= Core cache stats =========
L1I_cache:
	L1I_total_cache_accesses = 18559
	L1I_total_cache_misses = 913
	L1I_total_cache_miss_rate = 0.0492
	L1I_total_cache_pending_hits = 0
	L1I_total_cache_reservation_fails = 4343
L1D_cache:
	L1D_cache_core[0]: Access = 152, Miss = 38, Miss_rate = 0.250, Pending_hits = 114, Reservation_fails = 0
	L1D_cache_core[1]: Access = 188, Miss = 64, Miss_rate = 0.340, Pending_hits = 90, Reservation_fails = 0
	L1D_cache_core[2]: Access = 136, Miss = 34, Miss_rate = 0.250, Pending_hits = 102, Reservation_fails = 0
	L1D_cache_core[3]: Access = 144, Miss = 36, Miss_rate = 0.250, Pending_hits = 108, Reservation_fails = 0
	L1D_cache_core[4]: Access = 128, Miss = 32, Miss_rate = 0.250, Pending_hits = 96, Reservation_fails = 0
	L1D_cache_core[5]: Access = 136, Miss = 34, Miss_rate = 0.250, Pending_hits = 102, Reservation_fails = 0
	L1D_cache_core[6]: Access = 136, Miss = 34, Miss_rate = 0.250, Pending_hits = 102, Reservation_fails = 0
	L1D_cache_core[7]: Access = 136, Miss = 34, Miss_rate = 0.250, Pending_hits = 102, Reservation_fails = 0
	L1D_cache_core[8]: Access = 128, Miss = 32, Miss_rate = 0.250, Pending_hits = 96, Reservation_fails = 0
	L1D_cache_core[9]: Access = 152, Miss = 38, Miss_rate = 0.250, Pending_hits = 114, Reservation_fails = 0
	L1D_cache_core[10]: Access = 136, Miss = 34, Miss_rate = 0.250, Pending_hits = 102, Reservation_fails = 0
	L1D_cache_core[11]: Access = 128, Miss = 32, Miss_rate = 0.250, Pending_hits = 96, Reservation_fails = 0
	L1D_cache_core[12]: Access = 136, Miss = 34, Miss_rate = 0.250, Pending_hits = 102, Reservation_fails = 0
	L1D_cache_core[13]: Access = 136, Miss = 34, Miss_rate = 0.250, Pending_hits = 102, Reservation_fails = 0
	L1D_cache_core[14]: Access = 144, Miss = 36, Miss_rate = 0.250, Pending_hits = 108, Reservation_fails = 0
	L1D_total_cache_accesses = 2116
	L1D_total_cache_misses = 546
	L1D_total_cache_miss_rate = 0.2580
	L1D_total_cache_pending_hits = 1536
	L1D_total_cache_reservation_fails = 0
	L1D_cache_data_port_util = 0.001
	L1D_cache_fill_port_util = 0.012
L1C_cache:
	L1C_total_cache_accesses = 4115
	L1C_total_cache_misses = 480
	L1C_total_cache_miss_rate = 0.1166
	L1C_total_cache_pending_hits = 0
	L1C_total_cache_reservation_fails = 3515
L1T_cache:
	L1T_total_cache_accesses = 0
	L1T_total_cache_misses = 0
	L1T_total_cache_pending_hits = 0
	L1T_total_cache_reservation_fails = 0

Total_core_cache_stats:
	Total_core_cache_stats_breakdown[GLOBAL_ACC_R][HIT] = 31
	Total_core_cache_stats_breakdown[GLOBAL_ACC_R][HIT_RESERVED] = 1536
	Total_core_cache_stats_breakdown[GLOBAL_ACC_R][MISS] = 523
	Total_core_cache_stats_breakdown[CONST_ACC_R][HIT] = 3635
	Total_core_cache_stats_breakdown[CONST_ACC_R][MISS] = 480
	Total_core_cache_stats_breakdown[CONST_ACC_R][RESERVATION_FAIL] = 3515
	Total_core_cache_stats_breakdown[GLOBAL_ACC_W][HIT] = 3
	Total_core_cache_stats_breakdown[GLOBAL_ACC_W][MISS] = 23
	Total_core_cache_stats_breakdown[INST_ACC_R][HIT] = 17646
	Total_core_cache_stats_breakdown[INST_ACC_R][MISS] = 913
	Total_core_cache_stats_breakdown[INST_ACC_R][RESERVATION_FAIL] = 4343
Shader 0 warp_id issue ditsribution:
warp_id:
0, 1, 2, 3, 4, 5, 6, 7, 8, 9, 10, 11, 12, 13, 14, 15, 16, 17, 18, 19, 20, 21, 22, 23, 24, 25, 26, 27, 28, 29, 30, 31, 32, 33, 34, 35, 36, 37, 38, 39, 40, 41, 42, 43, 44, 45, 46, 47, 
distro:
45, 45, 45, 45, 45, 45, 45, 45, 45, 45, 45, 45, 45, 45, 45, 45, 60, 60, 60, 60, 60, 60, 60, 60, 45, 45, 45, 45, 45, 45, 45, 45, 45, 45, 45, 45, 45, 45, 45, 45, 45, 45, 45, 45, 45, 45, 45, 45, 
gpgpu_n_tot_thrd_icount = 990816
gpgpu_n_tot_w_icount = 30963
gpgpu_n_stall_shd_mem = 3515
gpgpu_n_mem_read_local = 0
gpgpu_n_mem_write_local = 0
gpgpu_n_mem_read_global = 523
gpgpu_n_mem_write_global = 26
gpgpu_n_mem_texture = 0
gpgpu_n_mem_const = 15
gpgpu_n_load_insn  = 65578
gpgpu_n_store_insn = 26
gpgpu_n_shmem_insn = 0
gpgpu_n_tex_insn = 0
gpgpu_n_const_mem_insn = 0
gpgpu_n_param_mem_insn = 131091
gpgpu_n_shmem_bkconflict = 0
gpgpu_n_cache_bkconflict = 0
gpgpu_n_intrawarp_mshr_merge = 0
gpgpu_n_cmem_portconflict = 3515
gpgpu_stall_shd_mem[c_mem][bk_conf] = 3515
gpgpu_stall_shd_mem[c_mem][mshr_rc] = 0
gpgpu_stall_shd_mem[c_mem][icnt_rc] = 0
gpgpu_stall_shd_mem[c_mem][data_port_stall] = 0
gpgpu_stall_shd_mem[t_mem][mshr_rc] = 0
gpgpu_stall_shd_mem[t_mem][icnt_rc] = 0
gpgpu_stall_shd_mem[t_mem][data_port_stall] = 0
gpgpu_stall_shd_mem[s_mem][bk_conf] = 0
gpgpu_stall_shd_mem[gl_mem][bk_conf] = 0
gpgpu_stall_shd_mem[gl_mem][coal_stall] = 0
gpgpu_stall_shd_mem[gl_mem][data_port_stall] = 0
gpgpu_stall_shd_mem[g_mem_ld][mshr_rc] = 0
gpgpu_stall_shd_mem[g_mem_ld][icnt_rc] = 0
gpgpu_stall_shd_mem[g_mem_ld][wb_icnt_rc] = 0
gpgpu_stall_shd_mem[g_mem_ld][wb_rsrv_fail] = 0
gpgpu_stall_shd_mem[g_mem_st][mshr_rc] = 0
gpgpu_stall_shd_mem[g_mem_st][icnt_rc] = 0
gpgpu_stall_shd_mem[g_mem_st][wb_icnt_rc] = 0
gpgpu_stall_shd_mem[g_mem_st][wb_rsrv_fail] = 0
gpgpu_stall_shd_mem[l_mem_ld][mshr_rc] = 0
gpgpu_stall_shd_mem[l_mem_ld][icnt_rc] = 0
gpgpu_stall_shd_mem[l_mem_ld][wb_icnt_rc] = 0
gpgpu_stall_shd_mem[l_mem_ld][wb_rsrv_fail] = 0
gpgpu_stall_shd_mem[l_mem_st][mshr_rc] = 0
gpgpu_stall_shd_mem[l_mem_st][icnt_rc] = 0
gpgpu_stall_shd_mem[l_mem_ld][wb_icnt_rc] = 0
gpgpu_stall_shd_mem[l_mem_ld][wb_rsrv_fail] = 0
gpu_reg_bank_conflict_stalls = 0
Warp Occupancy Distribution:
Stall:7718	W0_Idle:13953	W0_Scoreboard:35780	W1:243	W2:0	W3:0	W4:0	W5:0	W6:0	W7:0	W8:0	W9:0	W10:0	W11:0	W12:0	W13:0	W14:0	W15:0	W16:0	W17:0	W18:0	W19:0	W20:0	W21:0	W22:0	W23:0	W24:0	W25:0	W26:0	W27:0	W28:0	W29:0	W30:0	W31:0	W32:30720
traffic_breakdown_coretomem[CONST_ACC_R] = 120 {8:15,}
traffic_breakdown_coretomem[GLOBAL_ACC_R] = 4184 {8:523,}
traffic_breakdown_coretomem[GLOBAL_ACC_W] = 1040 {40:26,}
traffic_breakdown_coretomem[INST_ACC_R] = 256 {8:32,}
traffic_breakdown_memtocore[CONST_ACC_R] = 1080 {72:15,}
traffic_breakdown_memtocore[GLOBAL_ACC_R] = 71128 {136:523,}
traffic_breakdown_memtocore[GLOBAL_ACC_W] = 208 {8:26,}
traffic_breakdown_memtocore[INST_ACC_R] = 4352 {136:32,}
maxmrqlatency = 382 
maxdqlatency = 0 
maxmflatency = 692 
averagemflatency = 397 
max_icnt2mem_latency = 36 
max_icnt2sh_latency = 6125 
mrq_lat_table:120 	3 	4 	40 	37 	50 	114 	62 	118 	0 	0 	0 	0 	0 	0 	0 	0 	0 	0 	0 	0 	0 	0 	0 	0 	0 	0 	0 	0 	0 	0 	0 	
dq_lat_table:0 	0 	0 	0 	0 	0 	0 	0 	0 	0 	0 	0 	0 	0 	0 	0 	0 	0 	0 	0 	0 	0 	0 	0 	0 	0 	0 	0 	0 	0 	0 	0 	
mf_lat_table:0 	0 	0 	0 	0 	0 	0 	24 	393 	147 	0 	0 	0 	0 	0 	0 	0 	0 	0 	0 	0 	0 	0 	0 	0 	0 	0 	0 	0 	0 	0 	0 	
icnt2mem_lat_table:0 	0 	0 	585 	8 	3 	0 	0 	0 	0 	0 	0 	0 	0 	0 	0 	0 	0 	0 	0 	0 	0 	0 	0 	
icnt2sh_lat_table:0 	0 	0 	509 	29 	0 	0 	0 	0 	0 	2 	9 	15 	0 	0 	0 	0 	0 	0 	0 	0 	0 	0 	0 	
mf_lat_pw_table:0 	0 	0 	0 	0 	0 	0 	6 	5 	0 	0 	0 	0 	0 	0 	0 	0 	0 	0 	0 	0 	0 	0 	0 	0 	0 	0 	0 	0 	0 	0 	0 	
maximum concurrent accesses to same row:
dram[0]:         1         0         0         0         0         0         0         0         0         0         0         0         0         0         0         0 
dram[1]:         0         0         0         0         0         0         0         0         0         0         0         0         0         0         0         0 
dram[2]:         0         0         0         0         0         0         0         0         0         0         0         0         0         0         0         0 
dram[3]:         0         0         0         0         0         0         0         0         0         0         0         0         0         0         0         0 
dram[4]:         0         0         0         0         0         0         0         0         0         0        22        22         0         0         0         0 
dram[5]:         0         0         0         0         0         0         0         0         0         0         0         0         0         0         0         0 
maximum service time to same row:
dram[0]:      1621         0      6104         0         0         0         0         0         0         0       960       937      1788      1821         0         0 
dram[1]:      1229         0         0         0         0         0         0         0         0         0       968       940      1810      1837         0      4097 
dram[2]:         0         0         0      3193         0      1610         0         0         0      4446       979       941      1813      1578         0         0 
dram[3]:         0         0         0      5271         0      4857         0         0         0         0       976       944      1822      1832         0         0 
dram[4]:         0      4024         0         0         0      5682         0         0         0         0      1269      2650      1841      1840      3263         0 
dram[5]:         0         0         0         0         0         0         0         0         0         0       932       959      1813      1809      5756         0 
average row accesses per activate:
dram[0]:  1.000000      -nan  2.000000      -nan      -nan      -nan      -nan      -nan      -nan      -nan 20.000000 22.000000 22.000000 22.000000      -nan      -nan 
dram[1]:  2.000000      -nan      -nan      -nan      -nan      -nan      -nan      -nan      -nan      -nan 20.000000 22.000000 24.000000 22.000000      -nan  3.000000 
dram[2]:      -nan      -nan      -nan  2.000000      -nan  1.000000      -nan      -nan      -nan  2.000000 20.000000 22.000000 22.000000 22.000000      -nan      -nan 
dram[3]:      -nan      -nan      -nan  2.000000      -nan  2.000000      -nan      -nan      -nan      -nan 20.000000 22.000000 22.000000 20.000000      -nan      -nan 
dram[4]:      -nan  2.000000      -nan      -nan      -nan  2.000000      -nan      -nan      -nan      -nan  8.333333 12.000000 22.000000 20.000000  2.000000      -nan 
dram[5]:      -nan      -nan      -nan      -nan      -nan      -nan      -nan      -nan      -nan      -nan 22.000000 22.000000 22.000000 20.000000  1.000000      -nan 
average row locality = 548/43 = 12.744186
number of total memory accesses made:
dram[0]:         0         0         0         0         0         0         0         0         0         0         0         0         0         0         0         0 
dram[1]:         0         0         0         0         0         0         0         0         0         0         0         0         0         0         0         0 
dram[2]:         0         0         0         0         0         0         0         0         0         0         0         0         0         0         0         0 
dram[3]:         0         0         0         0         0         0         0         0         0         0         0         0         0         0         0         0 
dram[4]:         0         0         0         0         0         0         0         0         0         0         0         0         0         0         0         0 
dram[5]:         0         0         0         0         0         0         0         0         0         0         0         0         0         0         0         0 
total accesses: 0
min_bank_accesses = 0!
min_chip_accesses = 0!
number of total read accesses:
dram[0]:         4         0         1         0         0         0         0         0         0         0        20        22        22        22         0         0 
dram[1]:         2         0         0         0         0         0         0         0         0         0        20        22        24        22         0         3 
dram[2]:         0         0         0         1         0         1         0         0         0         1        20        22        22        21         0         0 
dram[3]:         0         0         0         1         0         1         0         0         0         0        20        22        22        20         0         0 
dram[4]:         0         1         0         0         0         1         0         0         0         0        24        23        22        20         2         0 
dram[5]:         0         0         0         0         0         0         0         0         0         0        22        22        22        20         1         0 
total reads: 538
min_bank_accesses = 0!
chip skew: 93/86 = 1.08
number of total write accesses:
dram[0]:         0         0         1         0         0         0         0         0         0         0         0         0         0         0         0         0 
dram[1]:         0         0         0         0         0         0         0         0         0         0         0         0         0         0         0         0 
dram[2]:         0         0         0         1         0         0         0         0         0         1         0         0         0         1         0         0 
dram[3]:         0         0         0         1         0         1         0         0         0         0         0         0         0         0         0         0 
dram[4]:         0         1         0         0         0         1         0         0         0         0         1         1         0         0         0         0 
dram[5]:         0         0         0         0         0         0         0         0         0         0         0         0         0         0         0         0 
total reads: 10
min_bank_accesses = 0!
min_chip_accesses = 0!
average mf latency per bank:
dram[0]:       1108    none         127    none      none      none      none      none      none      none         318       516       343       534    none      none  
dram[1]:          0    none      none      none      none      none      none      none      none      none         332       498       329       512    none         275
dram[2]:     none      none      none         127    none         281    none      none      none         127       325       479       302       419    none      none  
dram[3]:     none      none      none         127    none         127    none      none      none      none         335       513       328       483    none      none  
dram[4]:     none         127    none      none      none         127    none      none      none      none         355       480       318       520       276    none  
dram[5]:     none      none      none      none      none      none      none      none      none      none         320       500       323       536       282    none  
maximum mf latency per bank:
dram[0]:        295         0       254         0         0         0         0         0         0         0       376       642       443       682         0         0
dram[1]:          0         0         0         0         0         0         0         0         0         0       392       636       426       688         0       282
dram[2]:          0         0         0       254         0       281         0         0         0       254       396       637       367       555         0         0
dram[3]:          0         0         0       254         0       254         0         0         0         0       396       654       389       638         0         0
dram[4]:          0       254         0         0         0       254         0         0         0         0       395       677       386       692       281         0
dram[5]:          0         0         0         0         0         0         0         0         0         0       381       644       437       676       282         0

Number of Memory Banks Accessed per Memory Operation per Warp (from 0):
0	0	0	0	0	0	0	0	0	0	0	0	0	0	0	0	0	0	0	0	0	0	0	0	0	0	0	0	0	0	0	0	0	0	0	0	0	0	0	0	0	0	0	0	0	0	0	0	0	0	0	0	0	0	0	0	0	0	0	0	0	0	0	0	0	0	0	0	0	0	0	0	0	0	0	0	0	0	0	0	0	0	0	0	0	0	0	0	0	0	0	0	0	0	0	0	
Average # of Memory Banks Accessed per Memory Operation per Warp=-nan

position of mrq chosen
0	0	0	0	0	0	0	0	0	0	0	0	0	0	0	0	

average position of mrq chosen = -nan
Memory Partition 0: 
Cache L2_bank_000:
MSHR contents
MSHR: tag=0x80234400, atomic=0 1 entries : 0x7f8e53cb2f60 :  mf: uid= 32658, sid01:w00, part=0, addr=0x80234440, load , size=32, unknown  status = IN_PARTITION_DRAM (6125), 

Cache L2_bank_001:
MSHR contents

In Dram Latency Queue (total = 0): 
DRAM[0]: 16 bks, busW=1 BL=8 CL=12, tRRD=2 tCCD=6, tRCD=12 tRAS=28 tRP=12 tRC=40
n_cmd=8086 n_nop=7349 n_act=9 n_pre=3 n_req=92 n_rd=723 n_write=2 bw_util=0.1793
n_activity=2291 dram_eff=0.6329
bk0: 32a 7905i bk1: 0a 8080i bk2: 3a 8054i bk3: 0a 8084i bk4: 0a 8085i bk5: 0a 8085i bk6: 0a 8086i bk7: 0a 8088i bk8: 0a 8088i bk9: 0a 8089i bk10: 160a 7598i bk11: 176a 7061i bk12: 176a 7310i bk13: 176a 6870i bk14: 0a 8084i bk15: 0a 8086i 
dram_util_bins: 0 0 0 0 0 0 0 0 0 0
dram_eff_bins: 0 0 0 0 0 0 0 0 0 0
mrqq: max=16 avg=1.94435
Memory Partition 1: 
Cache L2_bank_002:
MSHR contents

Cache L2_bank_003:
MSHR contents

In Dram Latency Queue (total = 0): 
DRAM[1]: 16 bks, busW=1 BL=8 CL=12, tRRD=2 tCCD=6, tRCD=12 tRAS=28 tRP=12 tRC=40
n_cmd=8086 n_nop=7336 n_act=6 n_pre=0 n_req=93 n_rd=744 n_write=0 bw_util=0.184
n_activity=2287 dram_eff=0.6506
bk0: 16a 8012i bk1: 0a 8084i bk2: 0a 8084i bk3: 0a 8084i bk4: 0a 8084i bk5: 0a 8086i bk6: 0a 8086i bk7: 0a 8087i bk8: 0a 8089i bk9: 0a 8089i bk10: 160a 7590i bk11: 176a 7059i bk12: 192a 7311i bk13: 176a 6868i bk14: 0a 8084i bk15: 24a 8007i 
dram_util_bins: 0 0 0 0 0 0 0 0 0 0
dram_eff_bins: 0 0 0 0 0 0 0 0 0 0
mrqq: max=16 avg=1.85642
Memory Partition 2: 
Cache L2_bank_004:
MSHR contents

Cache L2_bank_005:
MSHR contents

In Dram Latency Queue (total = 0): 
DRAM[2]: 16 bks, busW=1 BL=8 CL=12, tRRD=2 tCCD=6, tRCD=12 tRAS=28 tRP=12 tRC=40
n_cmd=8086 n_nop=7369 n_act=7 n_pre=0 n_req=91 n_rd=704 n_write=6 bw_util=0.1756
n_activity=2253 dram_eff=0.6303
bk0: 0a 8086i bk1: 0a 8087i bk2: 0a 8087i bk3: 8a 8043i bk4: 0a 8085i bk5: 8a 8051i bk6: 0a 8085i bk7: 0a 8087i bk8: 0a 8088i bk9: 8a 8044i bk10: 160a 7582i bk11: 176a 7165i bk12: 176a 7465i bk13: 168a 6979i bk14: 0a 8084i bk15: 0a 8085i 
dram_util_bins: 0 0 0 0 0 0 0 0 0 0
dram_eff_bins: 0 0 0 0 0 0 0 0 0 0
mrqq: max=16 avg=1.42419
Memory Partition 3: 
Cache L2_bank_006:
MSHR contents

Cache L2_bank_007:
MSHR contents

In Dram Latency Queue (total = 0): 
DRAM[3]: 16 bks, busW=1 BL=8 CL=12, tRRD=2 tCCD=6, tRCD=12 tRAS=28 tRP=12 tRC=40
n_cmd=8086 n_nop=7388 n_act=6 n_pre=0 n_req=88 n_rd=688 n_write=4 bw_util=0.1712
n_activity=2181 dram_eff=0.6346
bk0: 0a 8086i bk1: 0a 8088i bk2: 0a 8088i bk3: 8a 8044i bk4: 0a 8086i bk5: 8a 8042i bk6: 0a 8084i bk7: 0a 8085i bk8: 0a 8087i bk9: 0a 8087i bk10: 160a 7595i bk11: 176a 7095i bk12: 176a 7421i bk13: 160a 7003i bk14: 0a 8084i bk15: 0a 8085i 
dram_util_bins: 0 0 0 0 0 0 0 0 0 0
dram_eff_bins: 0 0 0 0 0 0 0 0 0 0
mrqq: max=16 avg=1.64556
Memory Partition 4: 
Cache L2_bank_008:
MSHR contents

Cache L2_bank_009:
MSHR contents

In Dram Latency Queue (total = 0): 
DRAM[4]: 16 bks, busW=1 BL=8 CL=12, tRRD=2 tCCD=6, tRCD=12 tRAS=28 tRP=12 tRC=40
n_cmd=8086 n_nop=7321 n_act=10 n_pre=3 n_req=97 n_rd=744 n_write=8 bw_util=0.186
n_activity=2448 dram_eff=0.6144
bk0: 0a 8084i bk1: 8a 8042i bk2: 0a 8084i bk3: 0a 8085i bk4: 0a 8085i bk5: 8a 8043i bk6: 0a 8088i bk7: 0a 8089i bk8: 0a 8090i bk9: 0a 8091i bk10: 192a 7363i bk11: 184a 7006i bk12: 176a 7381i bk13: 160a 6926i bk14: 16a 8025i bk15: 0a 8081i 
dram_util_bins: 0 0 0 0 0 0 0 0 0 0
dram_eff_bins: 0 0 0 0 0 0 0 0 0 0
mrqq: max=16 avg=1.80237
Memory Partition 5: 
Cache L2_bank_010:
MSHR contents

Cache L2_bank_011:
MSHR contents

In Dram Latency Queue (total = 0): 
DRAM[5]: 16 bks, busW=1 BL=8 CL=12, tRRD=2 tCCD=6, tRCD=12 tRAS=28 tRP=12 tRC=40
n_cmd=8086 n_nop=7385 n_act=5 n_pre=0 n_req=87 n_rd=696 n_write=0 bw_util=0.1721
n_activity=2139 dram_eff=0.6508
bk0: 0a 8084i bk1: 0a 8086i bk2: 0a 8086i bk3: 0a 8086i bk4: 0a 8086i bk5: 0a 8087i bk6: 0a 8087i bk7: 0a 8087i bk8: 0a 8087i bk9: 0a 8087i bk10: 176a 7525i bk11: 176a 7057i bk12: 176a 7342i bk13: 160a 6876i bk14: 8a 8049i bk15: 0a 8084i 
dram_util_bins: 0 0 0 0 0 0 0 0 0 0
dram_eff_bins: 0 0 0 0 0 0 0 0 0 0
mrqq: max=16 avg=1.8067

========= L2 cache stats =========
L2_cache_bank[0]: Access = 77, Miss = 47, Miss_rate = 0.610, Pending_hits = 6, Reservation_fails = 259
L2_cache_bank[1]: Access = 44, Miss = 44, Miss_rate = 1.000, Pending_hits = 0, Reservation_fails = 0
L2_cache_bank[2]: Access = 61, Miss = 46, Miss_rate = 0.754, Pending_hits = 3, Reservation_fails = 130
L2_cache_bank[3]: Access = 47, Miss = 47, Miss_rate = 1.000, Pending_hits = 0, Reservation_fails = 0
L2_cache_bank[4]: Access = 42, Miss = 42, Miss_rate = 1.000, Pending_hits = 0, Reservation_fails = 0
L2_cache_bank[5]: Access = 46, Miss = 46, Miss_rate = 1.000, Pending_hits = 0, Reservation_fails = 0
L2_cache_bank[6]: Access = 45, Miss = 42, Miss_rate = 0.933, Pending_hits = 0, Reservation_fails = 0
L2_cache_bank[7]: Access = 46, Miss = 44, Miss_rate = 0.957, Pending_hits = 0, Reservation_fails = 0
L2_cache_bank[8]: Access = 56, Miss = 48, Miss_rate = 0.857, Pending_hits = 0, Reservation_fails = 0
L2_cache_bank[9]: Access = 45, Miss = 45, Miss_rate = 1.000, Pending_hits = 0, Reservation_fails = 0
L2_cache_bank[10]: Access = 45, Miss = 45, Miss_rate = 1.000, Pending_hits = 0, Reservation_fails = 0
L2_cache_bank[11]: Access = 42, Miss = 42, Miss_rate = 1.000, Pending_hits = 0, Reservation_fails = 0
L2_total_cache_accesses = 596
L2_total_cache_misses = 538
L2_total_cache_miss_rate = 0.9027
L2_total_cache_pending_hits = 9
L2_total_cache_reservation_fails = 389
L2_total_cache_breakdown:
	L2_cache_stats_breakdown[GLOBAL_ACC_R][MISS] = 523
	L2_cache_stats_breakdown[CONST_ACC_R][HIT] = 11
	L2_cache_stats_breakdown[CONST_ACC_R][HIT_RESERVED] = 3
	L2_cache_stats_breakdown[CONST_ACC_R][MISS] = 1
	L2_cache_stats_breakdown[CONST_ACC_R][RESERVATION_FAIL] = 130
	L2_cache_stats_breakdown[GLOBAL_ACC_W][HIT] = 16
	L2_cache_stats_breakdown[GLOBAL_ACC_W][MISS] = 10
	L2_cache_stats_breakdown[INST_ACC_R][HIT] = 22
	L2_cache_stats_breakdown[INST_ACC_R][HIT_RESERVED] = 6
	L2_cache_stats_breakdown[INST_ACC_R][MISS] = 4
	L2_cache_stats_breakdown[INST_ACC_R][RESERVATION_FAIL] = 259
L2_cache_data_port_util = 0.002
L2_cache_fill_port_util = 0.029

icnt_total_pkts_mem_to_simt=2846
icnt_total_pkts_simt_to_mem=622
LD_mem_lat_dist  0 0 0 0 0 0 0 0 0 0 0 0 0 0 0 0 0 0 0 0 0 0 0 0 0 0 0
ST_mem_lat_dist  0 0 0 0 0 0 0 0 0 0 0 0 0 0 0 0 0 0 0 0 0 0 0 0 0 0 0
----------------------------Interconnect-DETAILS--------------------------------
Class 0:
Packet latency average = 8.60738
	minimum = 6
	maximum = 34
Network latency average = 8.41275
	minimum = 6
	maximum = 34
Slowest packet = 14
Flit latency average = 6.50375
	minimum = 6
	maximum = 34
Slowest flit = 14
Fragmentation average = 0
	minimum = 0
	maximum = 0
Injected packet rate average = 0.00720668
	minimum = 0.00571335 (at node 4)
	maximum = 0.0125694 (at node 15)
Accepted packet rate average = 0.00720668
	minimum = 0.00571335 (at node 4)
	maximum = 0.0125694 (at node 15)
Injected flit rate average = 0.0209671
	minimum = 0.00571335 (at node 4)
	maximum = 0.0559909 (at node 15)
Accepted flit rate average= 0.0209671
	minimum = 0.00685602 (at node 19)
	maximum = 0.0414626 (at node 1)
Injected packet length average = 2.9094
Accepted packet length average = 2.9094
Total in-flight flits = 0 (0 measured)
====== Overall Traffic Statistics ======
====== Traffic class 0 ======
Packet latency average = 8.60738 (1 samples)
	minimum = 6 (1 samples)
	maximum = 34 (1 samples)
Network latency average = 8.41275 (1 samples)
	minimum = 6 (1 samples)
	maximum = 34 (1 samples)
Flit latency average = 6.50375 (1 samples)
	minimum = 6 (1 samples)
	maximum = 34 (1 samples)
Fragmentation average = 0 (1 samples)
	minimum = 0 (1 samples)
	maximum = 0 (1 samples)
Injected packet rate average = 0.00720668 (1 samples)
	minimum = 0.00571335 (1 samples)
	maximum = 0.0125694 (1 samples)
Accepted packet rate average = 0.00720668 (1 samples)
	minimum = 0.00571335 (1 samples)
	maximum = 0.0125694 (1 samples)
Injected flit rate average = 0.0209671 (1 samples)
	minimum = 0.00571335 (1 samples)
	maximum = 0.0559909 (1 samples)
Accepted flit rate average = 0.0209671 (1 samples)
	minimum = 0.00685602 (1 samples)
	maximum = 0.0414626 (1 samples)
Injected packet size average = 2.9094 (1 samples)
Accepted packet size average = 2.9094 (1 samples)
Hops average = 1 (1 samples)
----------------------------END-of-Interconnect-DETAILS-------------------------


gpgpu_simulation_time = 0 days, 0 hrs, 0 min, 4 sec (4 sec)
gpgpu_simulation_rate = 229434 (inst/sec)
gpgpu_simulation_rate = 1531 (cycle/sec)
GPGPU-Sim: synchronize waiting for inactive GPU simulation
GPGPU-Sim API: Stream Manager State
GPGPU-Sim: detected inactive GPU simulation thread

GPGPU-Sim PTX: cudaLaunch for 0x0x405636 (mode=performance simulation) on stream 0
GPGPU-Sim PTX: pushing kernel '_Z6KernelP4NodePiPbS2_S1_S2_i' to stream 0, gridDim= (256,1,1) blockDim = (256,1,1) 
[...]
traffic_breakdown_coretomem[INST_ACC_R] = 480 {8:60,}
traffic_breakdown_memtocore[CONST_ACC_R] = 1080 {72:15,}
traffic_breakdown_memtocore[GLOBAL_ACC_R] = 84050856 {136:618021,}
traffic_breakdown_memtocore[GLOBAL_ACC_W] = 3305664 {8:413208,}
traffic_breakdown_memtocore[INST_ACC_R] = 8160 {136:60,}
maxmrqlatency = 3823 
maxdqlatency = 0 
maxmflatency = 4149 
averagemflatency = 400 
max_icnt2mem_latency = 1620 
max_icnt2sh_latency = 770593 
mrq_lat_table:35734 	2829 	965 	3344 	7331 	6136 	2819 	1587 	1550 	745 	49 	6 	0 	0 	0 	0 	0 	0 	0 	0 	0 	0 	0 	0 	0 	0 	0 	0 	0 	0 	0 	0 	
dq_lat_table:0 	0 	0 	0 	0 	0 	0 	0 	0 	0 	0 	0 	0 	0 	0 	0 	0 	0 	0 	0 	0 	0 	0 	0 	0 	0 	0 	0 	0 	0 	0 	0 	
mf_lat_table:0 	0 	0 	0 	0 	0 	0 	136456 	700854 	190652 	2485 	796 	1 	0 	0 	0 	0 	0 	0 	0 	0 	0 	0 	0 	0 	0 	0 	0 	0 	0 	0 	0 	
icnt2mem_lat_table:0 	0 	0 	85922 	30210 	80100 	322214 	240728 	266727 	5327 	76 	0 	0 	0 	0 	0 	0 	0 	0 	0 	0 	0 	0 	0 	
icnt2sh_lat_table:0 	0 	0 	42486 	289288 	268030 	18086 	146 	0 	0 	2 	9 	33 	867 	9075 	17049 	43854 	99215 	167567 	75537 	0 	0 	0 	0 	
mf_lat_pw_table:0 	0 	0 	0 	0 	0 	0 	110 	1404 	21 	15 	0 	0 	0 	0 	0 	0 	0 	0 	0 	0 	0 	0 	0 	0 	0 	0 	0 	0 	0 	0 	0 	
maximum concurrent accesses to same row:
dram[0]:        31        35        23        26        26        30        32        32        32        52        27        31        35        32        37        32 
dram[1]:        35        29        46        32        23        20        30        28        30        21        21        22        32        32        42        46 
dram[2]:        41        36        57        44        23        30        32        32        32        32        20        25        32        43        45        36 
dram[3]:        26        27        31        34        30        33        27        30        36        28        22        22        32        33        34        34 
dram[4]:        32        30        32        35        27        24        32        32        36        32        26        22        32        32        35        32 
dram[5]:        30        21        45        46        26        24        31        30        20        26        28        23        32        32        32        33 
maximum service time to same row:
dram[0]:     67143     58903     53866     53159     66353     61147     40867     46016     62944     67391     58951     61310     95920     66935     71734     90894 
dram[1]:     70029     58319     64587     57112    104181     66197     46445     42664     42696     49852     67983     50685     80310     96804     72477     91471 
dram[2]:     55350     34208     63131     61477     40041     53797     46897     54372     39191     60780     46153     46313     69290     56240    140739     72800 
dram[3]:     50800     45698     55439     93249     45810     50952     53181     40448     60444     33671     55627     85695     68392     90689     67045     74673 
dram[4]:     62888     80184     51076     78996     78352     63620     78723     60922     44533     44600     52378     61221    128475     76729     66161     93836 
dram[5]:     45695     53849    106326    107319     67058     39163     62972     50788     60754     46401     60377     42884     88422     82145    136979    114178 
average row accesses per activate:
dram[0]:  3.651934  3.168033  3.261261  3.438356  4.069620  3.757226  3.370536  3.520179  4.951049  4.526316  3.267760  3.450549  4.254717  4.547170  8.173077  6.220588 
dram[1]:  3.841584  3.714932  3.441442  3.453704  3.120000  3.362791  3.399123  3.278884  3.109434  3.304878  3.364929  3.165899  3.597122  4.040984  5.973333  6.369863 
dram[2]:  3.702439  3.391111  4.397515  4.331395  3.558511  4.046243  4.181319  4.362638  3.958763  3.611872  2.995516  2.964602  4.696078  5.106383  8.450980  6.357143 
dram[3]:  3.598131  3.264463  3.820513  3.766839  3.666667  4.011696  3.989189  3.728643  3.552511  3.349138  2.731225  2.968610  4.212389  4.745098  5.578313  6.138889 
dram[4]:  3.952941  4.458904  3.633508  3.705263  3.505263  3.953216  4.011628  4.202532  4.403509  4.636905  3.469613  3.680473  4.111111  3.867769  8.094339  8.255320 
dram[5]:  3.512195  3.144068  3.092000  3.237903  3.510101  3.350254  4.364162  4.177778  3.372807  3.222222  3.140187  3.109005  4.223214  4.542056  7.846154  5.797297 
average row locality = 63095/16666 = 3.785851
number of total memory accesses made:
dram[0]:         0         0         0         0         0         0         0         0         0         0         0         0         0         0         0         0 
dram[1]:         0         0         0         0         0         0         0         0         0         0         0         0         0         0         0         0 
dram[2]:         0         0         0         0         0         0         0         0         0         0         0         0         0         0         0         0 
dram[3]:         0         0         0         0         0         0         0         0         0         0         0         0         0         0         0         0 
dram[4]:         0         0         0         0         0         0         0         0         0         0         0         0         0         0         0         0 
dram[5]:         0         0         0         0         0         0         0         0         0         0         0         0         0         0         0         0 
total accesses: 0
min_bank_accesses = 0!
min_chip_accesses = 0!
number of total read accesses:
dram[0]:       484       531       521       531       494       497       588       591       539       572       497       521       425       444       425       422 
dram[1]:       537       564       519       512       522       556       597       629       611       591       554       535       462       462       446       461 
dram[2]:       533       527       509       516       493       524       572       595       577       591       543       549       456       446       431       443 
dram[3]:       541       557       523       508       491       508       573       572       579       582       559       532       443       453       461       441 
dram[4]:       495       478       499       508       506       511       552       529       571       582       518       504       446       434       428       388 
dram[5]:       513       523       553       558       511       500       573       580       585       580       546       532       441       451       407       425 
total reads: 49495
bank skew: 629/388 = 1.62
chip skew: 8558/7949 = 1.08
number of total write accesses:
dram[0]:       177       242       203       222       149       153       167       194       169       202       101       107        26        38         0         1 
dram[1]:       239       257       245       234       180       167       178       194       213       222       156       152        38        31         2         4 
dram[2]:       226       236       199       229       176       176       189       199       191       200       125       121        23        34         0         2 
dram[3]:       229       233       222       219       158       178       165       170       199       195       132       130        33        31         2         1 
dram[4]:       177       173       195       196       160       165       138       135       182       197       110       118        35        34         1         0 
dram[5]:       207       219       220       245       184       160       182       172       184       203       126       124        32        35         1         4 
total reads: 13600
min_bank_accesses = 0!
chip skew: 2512/2016 = 1.25
average mf latency per bank:
dram[0]:       3068      2728      3196      3119      3660      3659      3304      3177      3185      3019      7096      7182     14464     13977     21430     21751
dram[1]:       2598      2579      2977      3185      3397      3421      3203      3227      2806      2881      5778      6496     13002     14098     20370     20606
dram[2]:       2772      2722      3189      3028      3521      3524      3252      3196      3116      3174      6354      7040     13793     14678     21123     21048
dram[3]:       2696      2559      3017      3169      3591      3435      3395      3370      2909      2920      6072      6558     13774     13998     19659     21131
dram[4]:       4114      3384      4336      3249      4708      3708      4768      3756      4085      3042     41262      7337     18549     14826     28735     24048
dram[5]:       2841      2911      2899      2902      3224      3639      3078      3261      2839      2951      6365      6853     13414     14219     21353     21762
maximum mf latency per bank:
dram[0]:       3013      3800      2561      2756      2395      2253      2037      2323      2699      2429      2031      3091      2291      2923      2264      2679
dram[1]:        948       970      1265      1518      2129      1198      1764      1553      1252       966      1187      1026      1170      1312      1118      1048
dram[2]:       2231      2205      2232      2933      2674      2931      2378      2530      2562      2658      2397      3169      2613      3123      2520      2338
dram[3]:       1034      1320      1187       964      1059      1040      1463      1287       943      1121      1620      1240      1355      1532      1032      1063
dram[4]:       3165      3587      3292      2941      2432      2809      3248      2731      2352      2796      3001      2833      3070      2712      3141      2837
dram[5]:       1339      1898      1181      1113       995      1739      4149      1374      1145       961      1300      1444      1448      1656      1490      1502

Number of Memory Banks Accessed per Memory Operation per Warp (from 0):
0	0	0	0	0	0	0	0	0	0	0	0	0	0	0	0	0	0	0	0	0	0	0	0	0	0	0	0	0	0	0	0	0	0	0	0	0	0	0	0	0	0	0	0	0	0	0	0	0	0	0	0	0	0	0	0	0	0	0	0	0	0	0	0	0	0	0	0	0	0	0	0	0	0	0	0	0	0	0	0	0	0	0	0	0	0	0	0	0	0	0	0	0	0	0	0	
Average # of Memory Banks Accessed per Memory Operation per Warp=-nan

position of mrq chosen
0	0	0	0	0	0	0	0	0	0	0	0	0	0	0	0	

average position of mrq chosen = -nan
Memory Partition 0: 
Cache L2_bank_000:
MSHR contents

Cache L2_bank_001:
MSHR contents

In Dram Latency Queue (total = 0): 
DRAM[0]: 16 bks, busW=1 BL=8 CL=12, tRRD=2 tCCD=6, tRCD=12 tRAS=28 tRP=12 tRC=40
n_cmd=1021184 n_nop=940872 n_act=2655 n_pre=2639 n_req=10233 n_rd=64656 n_write=10362 bw_util=0.1469
n_activity=279638 dram_eff=0.5365
bk0: 3872a 989862i bk1: 4248a 978971i bk2: 4168a 986480i bk3: 4248a 980444i bk4: 3952a 990092i bk5: 3976a 987526i bk6: 4704a 982594i bk7: 4728a 973395i bk8: 4312a 983362i bk9: 4576a 983396i bk10: 3976a 992617i bk11: 4168a 987801i bk12: 3400a 996778i bk13: 3552a 993668i bk14: 3400a 1001852i bk15: 3376a 1000903i 
dram_util_bins: 0 0 0 0 0 0 0 0 0 0
dram_eff_bins: 0 0 0 0 0 0 0 0 0 0
mrqq: max=16 avg=0.533125
Memory Partition 1: 
Cache L2_bank_002:
MSHR contents

Cache L2_bank_003:
MSHR contents

In Dram Latency Queue (total = 0): 
DRAM[1]: 16 bks, busW=1 BL=8 CL=12, tRRD=2 tCCD=6, tRCD=12 tRAS=28 tRP=12 tRC=40
n_cmd=1021184 n_nop=934364 n_act=3128 n_pre=3112 n_req=11070 n_rd=68464 n_write=12116 bw_util=0.1578
n_activity=303076 dram_eff=0.5317
bk0: 4296a 990580i bk1: 4512a 983971i bk2: 4152a 985087i bk3: 4096a 981557i bk4: 4176a 985561i bk5: 4448a 985560i bk6: 4776a 984802i bk7: 5032a 977517i bk8: 4888a 983446i bk9: 4728a 984721i bk10: 4432a 989783i bk11: 4280a 988148i bk12: 3696a 997120i bk13: 3696a 995688i bk14: 3568a 1001948i bk15: 3688a 1001406i 
dram_util_bins: 0 0 0 0 0 0 0 0 0 0
dram_eff_bins: 0 0 0 0 0 0 0 0 0 0
mrqq: max=16 avg=0.377555
Memory Partition 2: 
Cache L2_bank_004:
MSHR contents

Cache L2_bank_005:
MSHR contents

In Dram Latency Queue (total = 0): 
DRAM[2]: 16 bks, busW=1 BL=8 CL=12, tRRD=2 tCCD=6, tRCD=12 tRAS=28 tRP=12 tRC=40
n_cmd=1021184 n_nop=938288 n_act=2667 n_pre=2651 n_req=10631 n_rd=66440 n_write=11138 bw_util=0.1519
n_activity=286145 dram_eff=0.5422
bk0: 4264a 986206i bk1: 4216a 986105i bk2: 4072a 987156i bk3: 4128a 980858i bk4: 3944a 986508i bk5: 4192a 982163i bk6: 4576a 979243i bk7: 4760a 976962i bk8: 4616a 983834i bk9: 4728a 982785i bk10: 4344a 988971i bk11: 4392a 983330i bk12: 3648a 994097i bk13: 3568a 993712i bk14: 3448a 1003227i bk15: 3544a 1002273i 
dram_util_bins: 0 0 0 0 0 0 0 0 0 0
dram_eff_bins: 0 0 0 0 0 0 0 0 0 0
mrqq: max=16 avg=0.50987
Memory Partition 3: 
Cache L2_bank_006:
MSHR contents

Cache L2_bank_007:
MSHR contents

In Dram Latency Queue (total = 0): 
DRAM[3]: 16 bks, busW=1 BL=8 CL=12, tRRD=2 tCCD=6, tRCD=12 tRAS=28 tRP=12 tRC=40
n_cmd=1021184 n_nop=937844 n_act=2873 n_pre=2857 n_req=10620 n_rd=66584 n_write=11026 bw_util=0.152
n_activity=290245 dram_eff=0.5348
bk0: 4328a 988207i bk1: 4456a 982389i bk2: 4184a 983870i bk3: 4064a 985829i bk4: 3928a 991276i bk5: 4064a 989924i bk6: 4584a 985269i bk7: 4576a 984395i bk8: 4632a 987732i bk9: 4656a 986037i bk10: 4472a 990260i bk11: 4256a 987791i bk12: 3544a 999206i bk13: 3624a 997267i bk14: 3688a 1000818i bk15: 3528a 1002196i 
dram_util_bins: 0 0 0 0 0 0 0 0 0 0
dram_eff_bins: 0 0 0 0 0 0 0 0 0 0
mrqq: max=16 avg=0.364733
Memory Partition 4: 
Cache L2_bank_008:
MSHR contents

Cache L2_bank_009:
MSHR contents

In Dram Latency Queue (total = 0): 
DRAM[4]: 16 bks, busW=1 BL=8 CL=12, tRRD=2 tCCD=6, tRCD=12 tRAS=28 tRP=12 tRC=40
n_cmd=1021184 n_nop=943016 n_act=2415 n_pre=2399 n_req=9965 n_rd=63592 n_write=9762 bw_util=0.1437
n_activity=272595 dram_eff=0.5382
bk0: 3960a 987625i bk1: 3824a 987288i bk2: 3992a 987994i bk3: 4064a 985537i bk4: 4048a 986411i bk5: 4088a 985624i bk6: 4416a 989448i bk7: 4232a 982695i bk8: 4568a 985565i bk9: 4656a 979541i bk10: 4144a 989100i bk11: 4032a 988075i bk12: 3568a 992290i bk13: 3472a 992330i bk14: 3424a 1001062i bk15: 3104a 1002807i 
dram_util_bins: 0 0 0 0 0 0 0 0 0 0
dram_eff_bins: 0 0 0 0 0 0 0 0 0 0
mrqq: max=16 avg=0.52696
Memory Partition 5: 
Cache L2_bank_010:
MSHR contents

Cache L2_bank_011:
MSHR contents

In Dram Latency Queue (total = 0): 
DRAM[5]: 16 bks, busW=1 BL=8 CL=12, tRRD=2 tCCD=6, tRCD=12 tRAS=28 tRP=12 tRC=40
n_cmd=1021184 n_nop=937952 n_act=2928 n_pre=2912 n_req=10576 n_rd=66224 n_write=11168 bw_util=0.1516
n_activity=290383 dram_eff=0.533
bk0: 4104a 988112i bk1: 4184a 987122i bk2: 4424a 987519i bk3: 4464a 979624i bk4: 4088a 986522i bk5: 4000a 987201i bk6: 4584a 981276i bk7: 4640a 984233i bk8: 4680a 983749i bk9: 4640a 976976i bk10: 4368a 989351i bk11: 4256a 986705i bk12: 3528a 997564i bk13: 3608a 996406i bk14: 3256a 1003025i bk15: 3400a 1001102i 
dram_util_bins: 0 0 0 0 0 0 0 0 0 0
dram_eff_bins: 0 0 0 0 0 0 0 0 0 0
mrqq: max=16 avg=0.431778

========= L2 cache stats =========
L2_cache_bank[0]: Access = 81815, Miss = 3973, Miss_rate = 0.049, Pending_hits = 22, Reservation_fails = 4218
L2_cache_bank[1]: Access = 82869, Miss = 4109, Miss_rate = 0.050, Pending_hits = 20, Reservation_fails = 7862
L2_cache_bank[2]: Access = 81857, Miss = 4248, Miss_rate = 0.052, Pending_hits = 17, Reservation_fails = 130
L2_cache_bank[3]: Access = 83436, Miss = 4310, Miss_rate = 0.052, Pending_hits = 18, Reservation_fails = 1
L2_cache_bank[4]: Access = 81744, Miss = 4114, Miss_rate = 0.050, Pending_hits = 25, Reservation_fails = 1668
L2_cache_bank[5]: Access = 82956, Miss = 4191, Miss_rate = 0.051, Pending_hits = 19, Reservation_fails = 7146
L2_cache_bank[6]: Access = 82535, Miss = 4170, Miss_rate = 0.051, Pending_hits = 20, Reservation_fails = 0
L2_cache_bank[7]: Access = 82845, Miss = 4153, Miss_rate = 0.050, Pending_hits = 19, Reservation_fails = 0
L2_cache_bank[8]: Access = 122314, Miss = 4015, Miss_rate = 0.033, Pending_hits = 9, Reservation_fails = 3749
L2_cache_bank[9]: Access = 83120, Miss = 3934, Miss_rate = 0.047, Pending_hits = 22, Reservation_fails = 5627
L2_cache_bank[10]: Access = 82551, Miss = 4129, Miss_rate = 0.050, Pending_hits = 13, Reservation_fails = 2
L2_cache_bank[11]: Access = 83262, Miss = 4149, Miss_rate = 0.050, Pending_hits = 12, Reservation_fails = 1
L2_total_cache_accesses = 1031304
L2_total_cache_misses = 49495
L2_total_cache_miss_rate = 0.0480
L2_total_cache_pending_hits = 216
L2_total_cache_reservation_fails = 30404
L2_total_cache_breakdown:
	L2_cache_stats_breakdown[GLOBAL_ACC_R][HIT] = 575533
	L2_cache_stats_breakdown[GLOBAL_ACC_R][HIT_RESERVED] = 37
	L2_cache_stats_breakdown[GLOBAL_ACC_R][MISS] = 42451
	L2_cache_stats_breakdown[GLOBAL_ACC_R][RESERVATION_FAIL] = 30004
	L2_cache_stats_breakdown[CONST_ACC_R][HIT] = 11
	L2_cache_stats_breakdown[CONST_ACC_R][HIT_RESERVED] = 3
	L2_cache_stats_breakdown[CONST_ACC_R][MISS] = 1
	L2_cache_stats_breakdown[CONST_ACC_R][RESERVATION_FAIL] = 130
	L2_cache_stats_breakdown[GLOBAL_ACC_W][HIT] = 405999
	L2_cache_stats_breakdown[GLOBAL_ACC_W][HIT_RESERVED] = 170
	L2_cache_stats_breakdown[GLOBAL_ACC_W][MISS] = 7039
	L2_cache_stats_breakdown[GLOBAL_ACC_W][RESERVATION_FAIL] = 11
	L2_cache_stats_breakdown[INST_ACC_R][HIT] = 50
	L2_cache_stats_breakdown[INST_ACC_R][HIT_RESERVED] = 6
	L2_cache_stats_breakdown[INST_ACC_R][MISS] = 4
	L2_cache_stats_breakdown[INST_ACC_R][RESERVATION_FAIL] = 259
L2_cache_data_port_util = 0.294
L2_cache_fill_port_util = 0.021

icnt_total_pkts_mem_to_simt=3503658
icnt_total_pkts_simt_to_mem=1445126
LD_mem_lat_dist  0 0 0 0 0 0 0 0 0 0 0 0 0 0 0 0 0 0 0 0 0 0 0 0 0 0 0
ST_mem_lat_dist  0 0 0 0 0 0 0 0 0 0 0 0 0 0 0 0 0 0 0 0 0 0 0 0 0 0 0
----------------------------Interconnect-DETAILS--------------------------------
Class 0:
Packet latency average = 9.85815
	minimum = 6
	maximum = 32
Network latency average = 9.21429
	minimum = 6
	maximum = 27
Slowest packet = 2061854
Flit latency average = 7.73742
	minimum = 6
	maximum = 23
Slowest flit = 4946282
Fragmentation average = 0
	minimum = 0
	maximum = 0
Injected packet rate average = 0.0259992
	minimum = 0.0211864 (at node 4)
	maximum = 0.0310734 (at node 23)
Accepted packet rate average = 0.0259992
	minimum = 0.0211864 (at node 4)
	maximum = 0.0310734 (at node 23)
Injected flit rate average = 0.0779975
	minimum = 0.0211864 (at node 4)
	maximum = 0.155367 (at node 23)
Accepted flit rate average= 0.0779975
	minimum = 0.0275424 (at node 15)
	maximum = 0.127119 (at node 0)
Injected packet length average = 3
Accepted packet length average = 3
Total in-flight flits = 0 (0 measured)
====== Overall Traffic Statistics ======
====== Traffic class 0 ======
Packet latency average = 32.3694 (9 samples)
	minimum = 6 (9 samples)
	maximum = 405.778 (9 samples)
Network latency average = 21.237 (9 samples)
	minimum = 6 (9 samples)
	maximum = 377.444 (9 samples)
Flit latency average = 15.7903 (9 samples)
	minimum = 6 (9 samples)
	maximum = 375.667 (9 samples)
Fragmentation average = 0.0288373 (9 samples)
	minimum = 0 (9 samples)
	maximum = 186 (9 samples)
Injected packet rate average = 0.0501911 (9 samples)
	minimum = 0.0387834 (9 samples)
	maximum = 0.0906826 (9 samples)
Accepted packet rate average = 0.0501911 (9 samples)
	minimum = 0.0387834 (9 samples)
	maximum = 0.0906826 (9 samples)
Injected flit rate average = 0.124712 (9 samples)
	minimum = 0.0511907 (9 samples)
	maximum = 0.243409 (9 samples)
Accepted flit rate average = 0.124712 (9 samples)
	minimum = 0.0670686 (9 samples)
	maximum = 0.211927 (9 samples)
Injected packet size average = 2.48475 (9 samples)
Accepted packet size average = 2.48475 (9 samples)
Hops average = 1 (9 samples)
----------------------------END-of-Interconnect-DETAILS-------------------------


gpgpu_simulation_time = 0 days, 0 hrs, 6 min, 21 sec (381 sec)
gpgpu_simulation_rate = 44065 (inst/sec)
gpgpu_simulation_rate = 2030 (cycle/sec)
GPGPU-Sim: synchronize waiting for inactive GPU simulation
GPGPU-Sim API: Stream Manager State
GPGPU-Sim: detected inactive GPU simulation thread
Kernel Executed 9 times
Processing time: 379791.937500 (ms)
Result stored in result.txt
