

        *** GPGPU-Sim Simulator Version 3.2.2  [build 0] ***


GPGPU-Sim PTX: simulation mode 0 (can change with PTX_SIM_MODE_FUNC environment variable:
               1=functional simulation only, 0=detailed performance simulator)
GPGPU-Sim: Configuration options:

-network_mode                           1 # Interconnection network mode
-inter_config_file   config_fermi_islip.icnt # Interconnection network config file
-gpgpu_ptx_use_cuobjdump                    1 # Use cuobjdump to extract ptx and sass from binaries
-gpgpu_experimental_lib_support                    0 # Try to extract code from cuda libraries [Broken because of unknown cudaGetExportTable]
-gpgpu_ptx_convert_to_ptxplus                    0 # Convert SASS (native ISA) to ptxplus and run ptxplus
-gpgpu_ptx_force_max_capability                   20 # Force maximum compute capability
-gpgpu_ptx_inst_debug_to_file                    0 # Dump executed instructions' debug information to file
-gpgpu_ptx_inst_debug_file       inst_debug.txt # Executed instructions' debug output file
-gpgpu_ptx_inst_debug_thread_uid                    1 # Thread UID for executed instructions' debug output
-gpgpu_simd_model                       1 # 1 = post-dominator
-gpgpu_shader_core_pipeline              1536:32 # shader core pipeline config, i.e., {<nthread>:<warpsize>}
-gpgpu_tex_cache:l1  4:128:24,L:R:m:N:L,F:128:4,128:2 # per-shader L1 texture cache  (READ-ONLY) config  {<nsets>:<bsize>:<assoc>,<rep>:<wr>:<alloc>:<wr_alloc>,<mshr>:<N>:<merge>,<mq>:<rf>}
-gpgpu_const_cache:l1 64:64:2,L:R:f:N:L,A:2:32,4 # per-shader L1 constant memory cache  (READ-ONLY) config  {<nsets>:<bsize>:<assoc>,<rep>:<wr>:<alloc>:<wr_alloc>,<mshr>:<N>:<merge>,<mq>} 
-gpgpu_cache:il1     4:128:4,L:R:f:N:L,A:2:32,4 # shader L1 instruction cache config  {<nsets>:<bsize>:<assoc>,<rep>:<wr>:<alloc>:<wr_alloc>,<mshr>:<N>:<merge>,<mq>} 
-gpgpu_cache:dl1     32:256:4,L:L:m:N:H,A:32:8,8 # per-shader L1 data cache config  {<nsets>:<bsize>:<assoc>,<rep>:<wr>:<alloc>:<wr_alloc>,<mshr>:<N>:<merge>,<mq> | none}
-gpgpu_cache:dl1PrefL1                 none # per-shader L1 data cache config  {<nsets>:<bsize>:<assoc>,<rep>:<wr>:<alloc>:<wr_alloc>,<mshr>:<N>:<merge>,<mq> | none}
-gpgpu_cache:dl1PreShared                 none # per-shader L1 data cache config  {<nsets>:<bsize>:<assoc>,<rep>:<wr>:<alloc>:<wr_alloc>,<mshr>:<N>:<merge>,<mq> | none}
-gmem_skip_L1D                          0 # global memory access skip L1D cache (implements -Xptxas -dlcm=cg, default=no skip)
-gpgpu_perfect_mem                      0 # enable perfect memory mode (no cache miss)
-n_regfile_gating_group                    4 # group of lanes that should be read/written together)
-gpgpu_clock_gated_reg_file                    0 # enable clock gated reg file for power calculations
-gpgpu_clock_gated_lanes                    0 # enable clock gated lanes for power calculations
-gpgpu_shader_registers                32768 # Number of registers per shader core. Limits number of concurrent CTAs. (default 8192)
-gpgpu_shader_cta                       8 # Maximum number of concurrent CTAs in shader (default 8)
-gpgpu_num_cta_barriers                   16 # Maximum number of named barriers per CTA (default 16)
-gpgpu_n_clusters                      15 # number of processing clusters
-gpgpu_n_cores_per_cluster                    1 # number of simd cores per cluster
-gpgpu_n_cluster_ejection_buffer_size                    8 # number of packets in ejection buffer
-gpgpu_n_ldst_response_buffer_size                    2 # number of response packets in ld/st unit ejection buffer
-gpgpu_shmem_size                   16384 # Size of shared memory per shader core (default 16kB)
-gpgpu_shmem_size                   49152 # Size of shared memory per shader core (default 16kB)
-gpgpu_shmem_size_PrefL1                16384 # Size of shared memory per shader core (default 16kB)
-gpgpu_shmem_size_PrefShared                16384 # Size of shared memory per shader core (default 16kB)
-gpgpu_shmem_num_banks                   32 # Number of banks in the shared memory in each shader core (default 16)
-gpgpu_shmem_limited_broadcast                    0 # Limit shared memory to do one broadcast per cycle (default on)
-gpgpu_shmem_warp_parts                    1 # Number of portions a warp is divided into for shared memory bank conflict check 
-gpgpu_warpdistro_shader                   -1 # Specify which shader core to collect the warp size distribution from
-gpgpu_warp_issue_shader                    0 # Specify which shader core to collect the warp issue distribution from
-gpgpu_local_mem_map                    1 # Mapping from local memory space address to simulated GPU physical address space (default = enabled)
-gpgpu_num_reg_banks                   16 # Number of register banks (default = 8)
-gpgpu_reg_bank_use_warp_id                    0 # Use warp ID in mapping registers to banks (default = off)
-gpgpu_operand_collector_num_units_sp                    6 # number of collector units (default = 4)
-gpgpu_operand_collector_num_units_sfu                    8 # number of collector units (default = 4)
-gpgpu_operand_collector_num_units_mem                    2 # number of collector units (default = 2)
-gpgpu_operand_collector_num_units_gen                    0 # number of collector units (default = 0)
-gpgpu_operand_collector_num_in_ports_sp                    2 # number of collector unit in ports (default = 1)
-gpgpu_operand_collector_num_in_ports_sfu                    1 # number of collector unit in ports (default = 1)
-gpgpu_operand_collector_num_in_ports_mem                    1 # number of collector unit in ports (default = 1)
-gpgpu_operand_collector_num_in_ports_gen                    0 # number of collector unit in ports (default = 0)
-gpgpu_operand_collector_num_out_ports_sp                    2 # number of collector unit in ports (default = 1)
-gpgpu_operand_collector_num_out_ports_sfu                    1 # number of collector unit in ports (default = 1)
-gpgpu_operand_collector_num_out_ports_mem                    1 # number of collector unit in ports (default = 1)
-gpgpu_operand_collector_num_out_ports_gen                    0 # number of collector unit in ports (default = 0)
-gpgpu_coalesce_arch                   13 # Coalescing arch (default = 13, anything else is off for now)
-gpgpu_num_sched_per_core                    2 # Number of warp schedulers per core
-gpgpu_max_insn_issue_per_warp                    1 # Max number of instructions that can be issued per warp in one cycle by scheduler
-gpgpu_simt_core_sim_order                    1 # Select the simulation order of cores in a cluster (0=Fix, 1=Round-Robin)
-gpgpu_pipeline_widths        2,1,1,2,1,1,2 # Pipeline widths ID_OC_SP,ID_OC_SFU,ID_OC_MEM,OC_EX_SP,OC_EX_SFU,OC_EX_MEM,EX_WB
-gpgpu_num_sp_units                     2 # Number of SP units (default=1)
-gpgpu_num_sfu_units                    1 # Number of SF units (default=1)
-gpgpu_num_mem_units                    1 # Number if ldst units (default=1) WARNING: not hooked up to anything
-gpgpu_scheduler                      gto # Scheduler configuration: < lrr | gto | two_level_active > If two_level_active:<num_active_warps>:<inner_prioritization>:<outer_prioritization>For complete list of prioritization values see shader.h enum scheduler_prioritization_typeDefault: gto
-gpgpu_dram_scheduler                    1 # 0 = fifo, 1 = FR-FCFS (defaul)
-gpgpu_dram_partition_queues              8:8:8:8 # i2$:$2d:d2$:$2i
-l2_ideal                               0 # Use a ideal L2 cache that always hit
-gpgpu_cache:dl2     64:256:4,L:B:m:W:L,A:32:4,4:0,32 # unified banked L2 data cache config  {<nsets>:<bsize>:<assoc>,<rep>:<wr>:<alloc>:<wr_alloc>,<mshr>:<N>:<merge>,<mq>}
-gpgpu_cache:dl2_texture_only                    0 # L2 cache used for texture only
-gpgpu_n_mem                            6 # number of memory modules (e.g. memory controllers) in gpu
-gpgpu_n_sub_partition_per_mchannel                    2 # number of memory subpartition in each memory module
-gpgpu_n_mem_per_ctrlr                    2 # number of memory chips per memory controller
-gpgpu_memlatency_stat                   14 # track and display latency statistics 0x2 enables MC, 0x4 enables queue logs
-gpgpu_frfcfs_dram_sched_queue_size                   16 # 0 = unlimited (default); # entries per chip
-gpgpu_dram_return_queue_size                  116 # 0 = unlimited (default); # entries per chip
-gpgpu_dram_buswidth                    4 # default = 4 bytes (8 bytes per cycle at DDR)
-gpgpu_dram_burst_length                    8 # Burst length of each DRAM request (default = 4 data bus cycle)
-dram_data_command_freq_ratio                    4 # Frequency ratio between DRAM data bus and command bus (default = 2 times, i.e. DDR)
-gpgpu_dram_timing_opt nbk=16:CCD=2:RRD=6:RCD=12:RAS=28:RP=12:RC=40: CL=12:WL=4:CDLR=5:WR=12:nbkgrp=4:CCDL=3:RTPL=2 # DRAM timing parameters = {nbk:tCCD:tRRD:tRCD:tRAS:tRP:tRC:CL:WL:tCDLR:tWR:nbkgrp:tCCDL:tRTPL}
-rop_latency                          120 # ROP queue latency (default 85)
-dram_latency                         100 # DRAM latency (default 30)
-gpgpu_mem_addr_mapping dramid@8;00000000.00000000.00000000.00000000.0000RRRR.RRRRRRRR.BBBCCCCB.CCSSSSSS # mapping memory address to dram model {dramid@<start bit>;<memory address map>}
-gpgpu_mem_addr_test                    0 # run sweep test to check address mapping for aliased address
-gpgpu_mem_address_mask                    1 # 0 = old addressing mask, 1 = new addressing mask, 2 = new add. mask + flipped bank sel and chip sel bits
-gpuwattch_xml_file  gpuwattch_gtx480.xml # GPUWattch XML file
-power_simulation_enabled                    0 # Turn on power simulator (1=On, 0=Off)
-power_per_cycle_dump                    0 # Dump detailed power output each cycle
-power_trace_enabled                    0 # produce a file for the power trace (1=On, 0=Off)
-power_trace_zlevel                     6 # Compression level of the power trace output log (0=no comp, 9=highest)
-steady_power_levels_enabled                    0 # produce a file for the steady power levels (1=On, 0=Off)
-steady_state_definition                  8:4 # allowed deviation:number of samples
-gpgpu_max_cycle                        0 # terminates gpu simulation early (0 = no limit)
-gpgpu_max_insn                         0 # terminates gpu simulation early (0 = no limit)
-gpgpu_max_cta                          0 # terminates gpu simulation early (0 = no limit)
-gpgpu_runtime_stat                   500 # display runtime statistics such as dram utilization {<freq>:<flag>}
-liveness_message_freq                    1 # Minimum number of seconds between simulation liveness messages (0 = always print)
-gpgpu_flush_l1_cache                    0 # Flush L1 cache at the end of each kernel call
-gpgpu_flush_l2_cache                    0 # Flush L2 cache at the end of each kernel call
-gpgpu_deadlock_detect                    1 # Stop the simulation at deadlock (1=on (default), 0=off)
-gpgpu_ptx_instruction_classification                    0 # if enabled will classify ptx instruction types per kernel (Max 255 kernels now)
-gpgpu_ptx_sim_mode                     0 # Select between Performance (default) or Functional simulation (1)
-gpgpu_clock_domains 700.0:700.0:700.0:924.0 # Clock Domain Frequencies in MhZ {<Core Clock>:<ICNT Clock>:<L2 Clock>:<DRAM Clock>}
-gpgpu_max_concurrent_kernel                    8 # maximum kernels that can run concurrently on GPU
-gpgpu_cflog_interval                    0 # Interval between each snapshot in control flow logger
-visualizer_enabled                     0 # Turn on visualizer output (1=On, 0=Off)
-visualizer_outputfile                 NULL # Specifies the output log file for visualizer
-visualizer_zlevel                      6 # Compression level of the visualizer output log (0=no comp, 9=highest)
-trace_enabled                          0 # Turn on traces
-trace_components                    none # comma seperated list of traces to enable. Complete list found in trace_streams.tup. Default none
-trace_sampling_core                    0 # The core which is printed using CORE_DPRINTF. Default 0
-trace_sampling_memory_partition                   -1 # The memory partition which is printed using MEMPART_DPRINTF. Default -1 (i.e. all)
-enable_ptx_file_line_stats                    1 # Turn on PTX source line statistic profiling. (1 = On)
-ptx_line_stats_filename gpgpu_inst_stats.txt # Output file for PTX source line statistics.
-save_embedded_ptx                      0 # saves ptx files embedded in binary as <n>.ptx
-keep                                   0 # keep intermediate files created by GPGPU-Sim when interfacing with external programs
-gpgpu_ptx_save_converted_ptxplus                    0 # Saved converted ptxplus to a file
-ptx_opcode_latency_int         4,13,4,5,145 # Opcode latencies for integers <ADD,MAX,MUL,MAD,DIV>Default 1,1,19,25,145
-ptx_opcode_latency_fp          4,13,4,5,39 # Opcode latencies for single precision floating points <ADD,MAX,MUL,MAD,DIV>Default 1,1,1,1,30
-ptx_opcode_latency_dp         8,19,8,8,330 # Opcode latencies for double precision floating points <ADD,MAX,MUL,MAD,DIV>Default 8,8,8,8,335
-ptx_opcode_initiation_int            1,2,2,1,8 # Opcode initiation intervals for integers <ADD,MAX,MUL,MAD,DIV>Default 1,1,4,4,32
-ptx_opcode_initiation_fp            1,2,1,1,4 # Opcode initiation intervals for single precision floating points <ADD,MAX,MUL,MAD,DIV>Default 1,1,1,1,5
-ptx_opcode_initiation_dp         8,16,8,8,130 # Opcode initiation intervals for double precision floating points <ADD,MAX,MUL,MAD,DIV>Default 8,8,8,8,130
DRAM Timing Options:
nbk                                    16 # number of banks
CCD                                     2 # column to column delay
RRD                                     6 # minimal delay between activation of rows in different banks
RCD                                    12 # row to column delay
RAS                                    28 # time needed to activate row
RP                                     12 # time needed to precharge (deactivate) row
RC                                     40 # row cycle time
CDLR                                    5 # switching from write to read (changes tWTR)
WR                                     12 # last data-in to row precharge
CL                                     12 # CAS latency
WL                                      4 # Write latency
nbkgrp                                  4 # number of bank groups
CCDL                                    3 # column to column delay between accesses to different bank groups
RTPL                                    2 # read to precharge delay between accesses to different bank groups
Total number of memory sub partition = 12
addr_dec_mask[CHIP]  = 0000000000000000 	high:64 low:0
addr_dec_mask[BK]    = 000000000000e100 	high:16 low:8
addr_dec_mask[ROW]   = 000000000fff0000 	high:28 low:16
addr_dec_mask[COL]   = 0000000000001eff 	high:13 low:0
addr_dec_mask[BURST] = 000000000000003f 	high:6 low:0
sub_partition_id_mask = 0000000000000100
GPGPU-Sim uArch: clock freqs: 700000000.000000:700000000.000000:700000000.000000:924000000.000000
GPGPU-Sim uArch: clock periods: 0.00000000142857142857:0.00000000142857142857:0.00000000142857142857:0.00000000108225108225
*** Initializing Memory Statistics ***
GPGPU-Sim uArch: interconnect node map (shaderID+MemID to icntID)
GPGPU-Sim uArch: Memory nodes ID start from index: 15
GPGPU-Sim uArch:    0   1   2   3   4
GPGPU-Sim uArch:    5   6   7   8   9
GPGPU-Sim uArch:   10  11  12  13  14
GPGPU-Sim uArch:   15  16  17  18  19
GPGPU-Sim uArch:   20  21  22  23  24
GPGPU-Sim uArch:   25  26
GPGPU-Sim uArch: interconnect node reverse map (icntID to shaderID+MemID)
GPGPU-Sim uArch: Memory nodes start from ID: 15
GPGPU-Sim uArch:    0   1   2   3   4
GPGPU-Sim uArch:    5   6   7   8   9
GPGPU-Sim uArch:   10  11  12  13  14
GPGPU-Sim uArch:   15  16  17  18  19
GPGPU-Sim uArch:   20  21  22  23  24
GPGPU-Sim uArch:   25  26
e389dacb331e7fcddf4abf4a164344f1  /sciclone/data20/adwait/applications/benchmarks/CUDA/BlackScholes/gpgpu_ptx_sim__BlackScholes
GPGPU-Sim uArch: performance model initialization complete.
GPGPU-Sim PTX: __cudaRegisterFatBinary, fat_cubin_handle = 1, filename=BlackScholes.cu
self exe links to: /sciclone/data20/adwait/applications/benchmarks/CUDA/BlackScholes/gpgpu_ptx_sim__BlackScholes
Running md5sum using "md5sum /sciclone/data20/adwait/applications/benchmarks/CUDA/BlackScholes/gpgpu_ptx_sim__BlackScholes "
Parsing file _cuobjdump_complete_output_NGyYtJ
######### cuobjdump parser ########
## Adding new section ELF
Adding arch: sm_20
Adding identifier: BlackScholes.cu
## Adding new section PTX
Adding ptx filename: _cuobjdump_1.ptx
Adding arch: sm_20
Adding identifier: BlackScholes.cu
Done parsing!!!
GPGPU-Sim PTX: __cudaRegisterFunction _Z15BlackScholesGPUPfS_S_S_S_ffi : hostFun 0x0x405752, fat_cubin_handle = 1
GPGPU-Sim PTX: instruction assembly for function '_Z15BlackScholesGPUPfS_S_S_S_ffi'...   done.
GPGPU-Sim PTX: finding reconvergence points for '_Z15BlackScholesGPUPfS_S_S_S_ffi'...
GPGPU-Sim PTX: Finding dominators for '_Z15BlackScholesGPUPfS_S_S_S_ffi'...
GPGPU-Sim PTX: Finding immediate dominators for '_Z15BlackScholesGPUPfS_S_S_S_ffi'...
GPGPU-Sim PTX: Finding postdominators for '_Z15BlackScholesGPUPfS_S_S_S_ffi'...
GPGPU-Sim PTX: Finding immediate postdominators for '_Z15BlackScholesGPUPfS_S_S_S_ffi'...
GPGPU-Sim PTX: pre-decoding instructions for '_Z15BlackScholesGPUPfS_S_S_S_ffi'...
GPGPU-Sim PTX: reconvergence points for _Z15BlackScholesGPUPfS_S_S_S_ffi...
GPGPU-Sim PTX:  1 (potential) branch divergence @  PC=0x040 (_1.ptx:76) @%p1 bra $Lt_0_2818;
GPGPU-Sim PTX:    immediate post dominator      @  PC=0x3f8 (_1.ptx:200) exit;
GPGPU-Sim PTX:  2 (potential) branch divergence @  PC=0x3f0 (_1.ptx:197) @%p4 bra $Lt_0_3330;
GPGPU-Sim PTX:    immediate post dominator      @  PC=0x3f8 (_1.ptx:200) exit;
GPGPU-Sim PTX: ... end of reconvergence points for _Z15BlackScholesGPUPfS_S_S_S_ffi
GPGPU-Sim PTX: ... done pre-decoding instructions for '_Z15BlackScholesGPUPfS_S_S_S_ffi'.
GPGPU-Sim PTX: finished parsing EMBEDDED .ptx file _1.ptx
Adding _cuobjdump_1.ptx with cubin handle 1
GPGPU-Sim PTX: extracting embedded .ptx to temporary file "_ptx_dl0g9M"
Running: cat _ptx_dl0g9M | sed 's/.version 1.5/.version 1.4/' | sed 's/, texmode_independent//' | sed 's/\(\.extern \.const\[1\] .b8 \w\+\)\[\]/\1\[1\]/' | sed 's/const\[.\]/const\[0\]/g' > _ptx2_CQfDFR
GPGPU-Sim PTX: generating ptxinfo using "$CUDA_INSTALL_PATH/bin/ptxas --gpu-name=sm_20 -v _ptx2_CQfDFR --output-file  /dev/null 2> _ptx_dl0g9Minfo"
GPGPU-Sim PTX: Kernel '_Z15BlackScholesGPUPfS_S_S_S_ffi' : regs=31, lmem=0, smem=0, cmem=128
GPGPU-Sim PTX: removing ptxinfo using "rm -f _ptx_dl0g9M _ptx2_CQfDFR _ptx_dl0g9Minfo"
GPGPU-Sim PTX: loading globals with explicit initializers... 
GPGPU-Sim PTX: finished loading globals (0 bytes total).
GPGPU-Sim PTX: loading constants with explicit initializers...  done.
Initializing data...
...allocating CPU memory for options.
...allocating GPU memory for options.
...generating input data in CPU mem.
...copying input data to GPU mem.
Data init done.
Executing Black-Scholes GPU kernel (1 iterations)...
GPGPU-Sim: synchronize waiting for inactive GPU simulation
GPGPU-Sim API: Stream Manager State
GPGPU-Sim: detected inactive GPU simulation thread

GPGPU-Sim PTX: cudaLaunch for 0x0x405752 (mode=performance simulation) on stream 0
GPGPU-Sim PTX: pushing kernel '_Z15BlackScholesGPUPfS_S_S_S_ffi' to stream 0, gridDim= (480,1,1) blockDim = (128,1,1) 
kernel '_Z15BlackScholesGPUPfS_S_S_S_ffi' transfer to GPU hardware scheduler
GPGPU-Sim uArch: Shader 1 bind to kernel 1 '_Z15BlackScholesGPUPfS_S_S_S_ffi'
GPGPU-Sim uArch: CTA/core = 8, limited by: regs cta_limit
GPGPU-Sim uArch: core:  1, cta: 0 initialized @(1,0)
GPGPU-Sim uArch: Shader 2 bind to kernel 1 '_Z15BlackScholesGPUPfS_S_S_S_ffi'
GPGPU-Sim uArch: core:  2, cta: 0 initialized @(1,0)
GPGPU-Sim uArch: Shader 3 bind to kernel 1 '_Z15BlackScholesGPUPfS_S_S_S_ffi'
GPGPU-Sim uArch: core:  3, cta: 0 initialized @(1,0)
GPGPU-Sim uArch: Shader 4 bind to kernel 1 '_Z15BlackScholesGPUPfS_S_S_S_ffi'
GPGPU-Sim uArch: core:  4, cta: 0 initialized @(1,0)
GPGPU-Sim uArch: Shader 5 bind to kernel 1 '_Z15BlackScholesGPUPfS_S_S_S_ffi'
GPGPU-Sim uArch: core:  5, cta: 0 initialized @(1,0)
GPGPU-Sim uArch: Shader 6 bind to kernel 1 '_Z15BlackScholesGPUPfS_S_S_S_ffi'
GPGPU-Sim uArch: core:  6, cta: 0 initialized @(1,0)
GPGPU-Sim uArch: Shader 7 bind to kernel 1 '_Z15BlackScholesGPUPfS_S_S_S_ffi'
GPGPU-Sim uArch: core:  7, cta: 0 initialized @(1,0)
GPGPU-Sim uArch: Shader 8 bind to kernel 1 '_Z15BlackScholesGPUPfS_S_S_S_ffi'
GPGPU-Sim uArch: core:  8, cta: 0 initialized @(1,0)
GPGPU-Sim uArch: Shader 9 bind to kernel 1 '_Z15BlackScholesGPUPfS_S_S_S_ffi'
GPGPU-Sim uArch: core:  9, cta: 0 initialized @(1,0)
GPGPU-Sim uArch: Shader 10 bind to kernel 1 '_Z15BlackScholesGPUPfS_S_S_S_ffi'
GPGPU-Sim uArch: core: 10, cta: 0 initialized @(1,0)
GPGPU-Sim uArch: Shader 11 bind to kernel 1 '_Z15BlackScholesGPUPfS_S_S_S_ffi'
GPGPU-Sim uArch: core: 11, cta: 0 initialized @(1,0)
GPGPU-Sim uArch: Shader 12 bind to kernel 1 '_Z15BlackScholesGPUPfS_S_S_S_ffi'
GPGPU-Sim uArch: core: 12, cta: 0 initialized @(1,0)
GPGPU-Sim uArch: Shader 13 bind to kernel 1 '_Z15BlackScholesGPUPfS_S_S_S_ffi'
GPGPU-Sim uArch: core: 13, cta: 0 initialized @(1,0)
GPGPU-Sim uArch: Shader 14 bind to kernel 1 '_Z15BlackScholesGPUPfS_S_S_S_ffi'
GPGPU-Sim uArch: core: 14, cta: 0 initialized @(1,0)
GPGPU-Sim uArch: Shader 0 bind to kernel 1 '_Z15BlackScholesGPUPfS_S_S_S_ffi'
GPGPU-Sim uArch: core:  0, cta: 0 initialized @(1,0)
GPGPU-Sim uArch: core:  1, cta: 1 initialized @(2,0)
GPGPU-Sim uArch: core:  2, cta: 1 initialized @(2,0)
GPGPU-Sim uArch: core:  3, cta: 1 initialized @(2,0)
GPGPU-Sim uArch: core:  4, cta: 1 initialized @(2,0)
GPGPU-Sim uArch: core:  5, cta: 1 initialized @(2,0)
GPGPU-Sim uArch: core:  6, cta: 1 initialized @(2,0)
GPGPU-Sim uArch: core:  7, cta: 1 initialized @(2,0)
GPGPU-Sim uArch: core:  8, cta: 1 initialized @(2,0)
GPGPU-Sim uArch: core:  9, cta: 1 initialized @(2,0)
GPGPU-Sim uArch: core: 10, cta: 1 initialized @(2,0)
GPGPU-Sim uArch: core: 11, cta: 1 initialized @(2,0)
GPGPU-Sim uArch: core: 12, cta: 1 initialized @(2,0)
GPGPU-Sim uArch: core: 13, cta: 1 initialized @(2,0)
GPGPU-Sim uArch: core: 14, cta: 1 initialized @(2,0)
GPGPU-Sim uArch: core:  0, cta: 1 initialized @(2,0)
GPGPU-Sim uArch: core:  1, cta: 2 initialized @(3,0)
GPGPU-Sim uArch: core:  2, cta: 2 initialized @(3,0)
GPGPU-Sim uArch: core:  3, cta: 2 initialized @(3,0)
GPGPU-Sim uArch: core:  4, cta: 2 initialized @(3,0)
GPGPU-Sim uArch: core:  5, cta: 2 initialized @(3,0)
GPGPU-Sim uArch: core:  6, cta: 2 initialized @(3,0)
GPGPU-Sim uArch: core:  7, cta: 2 initialized @(3,0)
GPGPU-Sim uArch: core:  8, cta: 2 initialized @(3,0)
GPGPU-Sim uArch: core:  9, cta: 2 initialized @(3,0)
GPGPU-Sim uArch: core: 10, cta: 2 initialized @(3,0)
GPGPU-Sim uArch: core: 11, cta: 2 initialized @(3,0)
GPGPU-Sim uArch: core: 12, cta: 2 initialized @(3,0)
GPGPU-Sim uArch: core: 13, cta: 2 initialized @(3,0)
GPGPU-Sim uArch: core: 14, cta: 2 initialized @(3,0)
GPGPU-Sim uArch: core:  0, cta: 2 initialized @(3,0)
GPGPU-Sim uArch: core:  1, cta: 3 initialized @(4,0)
GPGPU-Sim uArch: core:  2, cta: 3 initialized @(4,0)
GPGPU-Sim uArch: core:  3, cta: 3 initialized @(4,0)
GPGPU-Sim uArch: core:  4, cta: 3 initialized @(4,0)
GPGPU-Sim uArch: core:  5, cta: 3 initialized @(4,0)
GPGPU-Sim uArch: core:  6, cta: 3 initialized @(4,0)
GPGPU-Sim uArch: core:  7, cta: 3 initialized @(4,0)
GPGPU-Sim uArch: core:  8, cta: 3 initialized @(4,0)
GPGPU-Sim uArch: core:  9, cta: 3 initialized @(4,0)
GPGPU-Sim uArch: core: 10, cta: 3 initialized @(4,0)
GPGPU-Sim uArch: core: 11, cta: 3 initialized @(4,0)
GPGPU-Sim uArch: core: 12, cta: 3 initialized @(4,0)
GPGPU-Sim uArch: core: 13, cta: 3 initialized @(4,0)
GPGPU-Sim uArch: core: 14, cta: 3 initialized @(4,0)
GPGPU-Sim uArch: core:  0, cta: 3 initialized @(4,0)
GPGPU-Sim uArch: core:  1, cta: 4 initialized @(5,0)
GPGPU-Sim uArch: core:  2, cta: 4 initialized @(5,0)
GPGPU-Sim uArch: core:  3, cta: 4 initialized @(5,0)
GPGPU-Sim uArch: core:  4, cta: 4 initialized @(5,0)
GPGPU-Sim uArch: core:  5, cta: 4 initialized @(5,0)
GPGPU-Sim uArch: core:  6, cta: 4 initialized @(5,0)
GPGPU-Sim uArch: core:  7, cta: 4 initialized @(5,0)
GPGPU-Sim uArch: core:  8, cta: 4 initialized @(5,0)
GPGPU-Sim uArch: core:  9, cta: 4 initialized @(5,0)
GPGPU-Sim uArch: core: 10, cta: 4 initialized @(5,0)
GPGPU-Sim uArch: core: 11, cta: 4 initialized @(5,0)
GPGPU-Sim uArch: core: 12, cta: 4 initialized @(5,0)
GPGPU-Sim uArch: core: 13, cta: 4 initialized @(5,0)
GPGPU-Sim uArch: core: 14, cta: 4 initialized @(5,0)
GPGPU-Sim uArch: core:  0, cta: 4 initialized @(5,0)
GPGPU-Sim uArch: core:  1, cta: 5 initialized @(6,0)
GPGPU-Sim uArch: core:  2, cta: 5 initialized @(6,0)
GPGPU-Sim uArch: core:  3, cta: 5 initialized @(6,0)
GPGPU-Sim uArch: core:  4, cta: 5 initialized @(6,0)
GPGPU-Sim uArch: core:  5, cta: 5 initialized @(6,0)
GPGPU-Sim uArch: core:  6, cta: 5 initialized @(6,0)
GPGPU-Sim uArch: core:  7, cta: 5 initialized @(6,0)
GPGPU-Sim uArch: core:  8, cta: 5 initialized @(6,0)
GPGPU-Sim uArch: core:  9, cta: 5 initialized @(6,0)
GPGPU-Sim uArch: core: 10, cta: 5 initialized @(6,0)
GPGPU-Sim uArch: core: 11, cta: 5 initialized @(6,0)
GPGPU-Sim uArch: core: 12, cta: 5 initialized @(6,0)
GPGPU-Sim uArch: core: 13, cta: 5 initialized @(6,0)
GPGPU-Sim uArch: core: 14, cta: 5 initialized @(6,0)
GPGPU-Sim uArch: core:  0, cta: 5 initialized @(6,0)
GPGPU-Sim uArch: core:  1, cta: 6 initialized @(7,0)
GPGPU-Sim uArch: core:  2, cta: 6 initialized @(7,0)
GPGPU-Sim uArch: core:  3, cta: 6 initialized @(7,0)
GPGPU-Sim uArch: core:  4, cta: 6 initialized @(7,0)
GPGPU-Sim uArch: core:  5, cta: 6 initialized @(7,0)
GPGPU-Sim uArch: core:  6, cta: 6 initialized @(7,0)
GPGPU-Sim uArch: core:  7, cta: 6 initialized @(7,0)
GPGPU-Sim uArch: core:  8, cta: 6 initialized @(7,0)
GPGPU-Sim uArch: core:  9, cta: 6 initialized @(7,0)
GPGPU-Sim uArch: core: 10, cta: 6 initialized @(7,0)
GPGPU-Sim uArch: core: 11, cta: 6 initialized @(7,0)
GPGPU-Sim uArch: core: 12, cta: 6 initialized @(7,0)
GPGPU-Sim uArch: core: 13, cta: 6 initialized @(7,0)
GPGPU-Sim uArch: core: 14, cta: 6 initialized @(7,0)
GPGPU-Sim uArch: core:  0, cta: 6 initialized @(7,0)
GPGPU-Sim uArch: core:  1, cta: 7 initialized @(8,0)
GPGPU-Sim uArch: core:  2, cta: 7 initialized @(8,0)
GPGPU-Sim uArch: core:  3, cta: 7 initialized @(8,0)
GPGPU-Sim uArch: core:  4, cta: 7 initialized @(8,0)
GPGPU-Sim uArch: core:  5, cta: 7 initialized @(8,0)
GPGPU-Sim uArch: core:  6, cta: 7 initialized @(8,0)
GPGPU-Sim uArch: core:  7, cta: 7 initialized @(8,0)
GPGPU-Sim uArch: core:  8, cta: 7 initialized @(8,0)
GPGPU-Sim uArch: core:  9, cta: 7 initialized @(8,0)
GPGPU-Sim uArch: core: 10, cta: 7 initialized @(8,0)
GPGPU-Sim uArch: core: 11, cta: 7 initialized @(8,0)
GPGPU-Sim uArch: core: 12, cta: 7 initialized @(8,0)
GPGPU-Sim uArch: core: 13, cta: 7 initialized @(8,0)
GPGPU-Sim uArch: core: 14, cta: 7 initialized @(8,0)
GPGPU-Sim uArch: core:  0, cta: 7 initialized @(8,0)
GPGPU-Sim PTX: 100000 instructions simulated : ctaid=(13,0,0) tid=(31,0,0)
GPGPU-Sim uArch: cycles simulated: 500  inst.: 92160 (ipc=184.3) sim_rate=46080 (inst/sec) elapsed = 0:0:00:02 / Fri Mar  4 17:16:46 2016
GPGPU-Sim PTX: 200000 instructions simulated : ctaid=(94,0,0) tid=(63,0,0)
GPGPU-Sim PTX: 300000 instructions simulated : ctaid=(97,0,0) tid=(127,0,0)
GPGPU-Sim uArch: cycles simulated: 1000  inst.: 341280 (ipc=341.3) sim_rate=113760 (inst/sec) elapsed = 0:0:00:03 / Fri Mar  4 17:16:47 2016
GPGPU-Sim PTX: 400000 instructions simulated : ctaid=(20,0,0) tid=(31,0,0)
GPGPU-Sim PTX: 500000 instructions simulated : ctaid=(39,0,0) tid=(31,0,0)
GPGPU-Sim PTX: 600000 instructions simulated : ctaid=(79,0,0) tid=(31,0,0)
GPGPU-Sim uArch: cycles simulated: 2500  inst.: 605504 (ipc=242.2) sim_rate=151376 (inst/sec) elapsed = 0:0:00:04 / Fri Mar  4 17:16:48 2016
GPGPU-Sim PTX: 700000 instructions simulated : ctaid=(50,0,0) tid=(95,0,0)
GPGPU-Sim PTX: 800000 instructions simulated : ctaid=(29,0,0) tid=(31,0,0)
GPGPU-Sim PTX: 900000 instructions simulated : ctaid=(32,0,0) tid=(95,0,0)
GPGPU-Sim PTX: 1000000 instructions simulated : ctaid=(63,0,0) tid=(31,0,0)
GPGPU-Sim PTX: 1100000 instructions simulated : ctaid=(54,0,0) tid=(95,0,0)
GPGPU-Sim PTX: 1200000 instructions simulated : ctaid=(22,0,0) tid=(63,0,0)
GPGPU-Sim uArch: cycles simulated: 3500  inst.: 1185248 (ipc=338.6) sim_rate=237049 (inst/sec) elapsed = 0:0:00:05 / Fri Mar  4 17:16:49 2016
GPGPU-Sim PTX: 1300000 instructions simulated : ctaid=(9,0,0) tid=(95,0,0)
GPGPU-Sim PTX: 1400000 instructions simulated : ctaid=(97,0,0) tid=(95,0,0)
GPGPU-Sim PTX: 1500000 instructions simulated : ctaid=(66,0,0) tid=(63,0,0)
GPGPU-Sim PTX: 1600000 instructions simulated : ctaid=(100,0,0) tid=(63,0,0)
GPGPU-Sim uArch: cycles simulated: 4000  inst.: 1582080 (ipc=395.5) sim_rate=263680 (inst/sec) elapsed = 0:0:00:06 / Fri Mar  4 17:16:50 2016
GPGPU-Sim PTX: 1700000 instructions simulated : ctaid=(105,0,0) tid=(63,0,0)
GPGPU-Sim PTX: 1800000 instructions simulated : ctaid=(100,0,0) tid=(95,0,0)
GPGPU-Sim PTX: 1900000 instructions simulated : ctaid=(59,0,0) tid=(63,0,0)
GPGPU-Sim PTX: 2000000 instructions simulated : ctaid=(119,0,0) tid=(63,0,0)
GPGPU-Sim PTX: 2100000 instructions simulated : ctaid=(38,0,0) tid=(127,0,0)
GPGPU-Sim uArch: cycles simulated: 5000  inst.: 2114048 (ipc=422.8) sim_rate=302006 (inst/sec) elapsed = 0:0:00:07 / Fri Mar  4 17:16:51 2016
GPGPU-Sim PTX: 2200000 instructions simulated : ctaid=(25,0,0) tid=(63,0,0)
GPGPU-Sim PTX: 2300000 instructions simulated : ctaid=(43,0,0) tid=(31,0,0)
GPGPU-Sim PTX: 2400000 instructions simulated : ctaid=(34,0,0) tid=(95,0,0)
GPGPU-Sim PTX: 2500000 instructions simulated : ctaid=(103,0,0) tid=(63,0,0)
GPGPU-Sim PTX: 2600000 instructions simulated : ctaid=(5,0,0) tid=(95,0,0)
GPGPU-Sim PTX: 2700000 instructions simulated : ctaid=(106,0,0) tid=(63,0,0)
GPGPU-Sim PTX: 2800000 instructions simulated : ctaid=(66,0,0) tid=(31,0,0)
GPGPU-Sim uArch: cycles simulated: 6000  inst.: 2814912 (ipc=469.2) sim_rate=351864 (inst/sec) elapsed = 0:0:00:08 / Fri Mar  4 17:16:52 2016
GPGPU-Sim PTX: 2900000 instructions simulated : ctaid=(80,0,0) tid=(63,0,0)
GPGPU-Sim PTX: 3000000 instructions simulated : ctaid=(75,0,0) tid=(95,0,0)
GPGPU-Sim PTX: 3100000 instructions simulated : ctaid=(88,0,0) tid=(127,0,0)
GPGPU-Sim PTX: 3200000 instructions simulated : ctaid=(71,0,0) tid=(63,0,0)
GPGPU-Sim PTX: 3300000 instructions simulated : ctaid=(20,0,0) tid=(95,0,0)
GPGPU-Sim PTX: 3400000 instructions simulated : ctaid=(8,0,0) tid=(95,0,0)
GPGPU-Sim PTX: 3500000 instructions simulated : ctaid=(26,0,0) tid=(95,0,0)
GPGPU-Sim uArch: cycles simulated: 7000  inst.: 3497088 (ipc=499.6) sim_rate=388565 (inst/sec) elapsed = 0:0:00:09 / Fri Mar  4 17:16:53 2016
GPGPU-Sim PTX: 3600000 instructions simulated : ctaid=(9,0,0) tid=(127,0,0)
GPGPU-Sim PTX: 3700000 instructions simulated : ctaid=(5,0,0) tid=(95,0,0)
GPGPU-Sim PTX: 3800000 instructions simulated : ctaid=(9,0,0) tid=(63,0,0)
GPGPU-Sim PTX: 3900000 instructions simulated : ctaid=(30,0,0) tid=(95,0,0)
GPGPU-Sim uArch: cycles simulated: 7500  inst.: 3859616 (ipc=514.6) sim_rate=385961 (inst/sec) elapsed = 0:0:00:10 / Fri Mar  4 17:16:54 2016
GPGPU-Sim PTX: 4000000 instructions simulated : ctaid=(12,0,0) tid=(63,0,0)
GPGPU-Sim PTX: 4100000 instructions simulated : ctaid=(116,0,0) tid=(127,0,0)
GPGPU-Sim PTX: 4200000 instructions simulated : ctaid=(23,0,0) tid=(95,0,0)
GPGPU-Sim PTX: 4300000 instructions simulated : ctaid=(6,0,0) tid=(63,0,0)
GPGPU-Sim PTX: 4400000 instructions simulated : ctaid=(65,0,0) tid=(127,0,0)
GPGPU-Sim PTX: 4500000 instructions simulated : ctaid=(81,0,0) tid=(31,0,0)
GPGPU-Sim uArch: cycles simulated: 8500  inst.: 4527936 (ipc=532.7) sim_rate=411630 (inst/sec) elapsed = 0:0:00:11 / Fri Mar  4 17:16:55 2016
GPGPU-Sim PTX: 4600000 instructions simulated : ctaid=(62,0,0) tid=(127,0,0)
GPGPU-Sim PTX: 4700000 instructions simulated : ctaid=(96,0,0) tid=(63,0,0)
GPGPU-Sim PTX: 4800000 instructions simulated : ctaid=(101,0,0) tid=(31,0,0)
GPGPU-Sim PTX: 4900000 instructions simulated : ctaid=(37,0,0) tid=(127,0,0)
GPGPU-Sim PTX: 5000000 instructions simulated : ctaid=(33,0,0) tid=(95,0,0)
GPGPU-Sim PTX: 5100000 instructions simulated : ctaid=(15,0,0) tid=(95,0,0)
GPGPU-Sim PTX: 5200000 instructions simulated : ctaid=(40,0,0) tid=(127,0,0)
GPGPU-Sim uArch: cycles simulated: 9500  inst.: 5172768 (ipc=544.5) sim_rate=431064 (inst/sec) elapsed = 0:0:00:12 / Fri Mar  4 17:16:56 2016
GPGPU-Sim PTX: 5300000 instructions simulated : ctaid=(5,0,0) tid=(31,0,0)
GPGPU-Sim PTX: 5400000 instructions simulated : ctaid=(32,0,0) tid=(127,0,0)
GPGPU-Sim PTX: 5500000 instructions simulated : ctaid=(60,0,0) tid=(95,0,0)
GPGPU-Sim uArch: cycles simulated: 10000  inst.: 5460864 (ipc=546.1) sim_rate=420066 (inst/sec) elapsed = 0:0:00:13 / Fri Mar  4 17:16:57 2016
GPGPU-Sim PTX: 5600000 instructions simulated : ctaid=(48,0,0) tid=(63,0,0)
GPGPU-Sim PTX: 5700000 instructions simulated : ctaid=(69,0,0) tid=(31,0,0)
GPGPU-Sim PTX: 5800000 instructions simulated : ctaid=(74,0,0) tid=(95,0,0)
GPGPU-Sim PTX: 5900000 instructions simulated : ctaid=(114,0,0) tid=(95,0,0)
GPGPU-Sim PTX: 6000000 instructions simulated : ctaid=(76,0,0) tid=(63,0,0)
GPGPU-Sim PTX: 6100000 instructions simulated : ctaid=(36,0,0) tid=(31,0,0)
GPGPU-Sim uArch: cycles simulated: 11000  inst.: 6072352 (ipc=552.0) sim_rate=433739 (inst/sec) elapsed = 0:0:00:14 / Fri Mar  4 17:16:58 2016
GPGPU-Sim PTX: 6200000 instructions simulated : ctaid=(93,0,0) tid=(31,0,0)
GPGPU-Sim PTX: 6300000 instructions simulated : ctaid=(11,0,0) tid=(95,0,0)
GPGPU-Sim PTX: 6400000 instructions simulated : ctaid=(25,0,0) tid=(31,0,0)
GPGPU-Sim PTX: 6500000 instructions simulated : ctaid=(59,0,0) tid=(31,0,0)
GPGPU-Sim PTX: 6600000 instructions simulated : ctaid=(15,0,0) tid=(127,0,0)
GPGPU-Sim PTX: 6700000 instructions simulated : ctaid=(39,0,0) tid=(95,0,0)
GPGPU-Sim uArch: cycles simulated: 12000  inst.: 6677152 (ipc=556.4) sim_rate=445143 (inst/sec) elapsed = 0:0:00:15 / Fri Mar  4 17:16:59 2016
GPGPU-Sim PTX: 6800000 instructions simulated : ctaid=(23,0,0) tid=(95,0,0)
GPGPU-Sim PTX: 6900000 instructions simulated : ctaid=(86,0,0) tid=(95,0,0)
GPGPU-Sim PTX: 7000000 instructions simulated : ctaid=(2,0,0) tid=(95,0,0)
GPGPU-Sim PTX: 7100000 instructions simulated : ctaid=(114,0,0) tid=(127,0,0)
GPGPU-Sim PTX: 7200000 instructions simulated : ctaid=(30,0,0) tid=(63,0,0)
GPGPU-Sim PTX: 7300000 instructions simulated : ctaid=(5,0,0) tid=(63,0,0)
GPGPU-Sim uArch: cycles simulated: 13000  inst.: 7304480 (ipc=561.9) sim_rate=456530 (inst/sec) elapsed = 0:0:00:16 / Fri Mar  4 17:17:00 2016
GPGPU-Sim PTX: 7400000 instructions simulated : ctaid=(1,0,0) tid=(31,0,0)
GPGPU-Sim PTX: 7500000 instructions simulated : ctaid=(57,0,0) tid=(63,0,0)
GPGPU-Sim PTX: 7600000 instructions simulated : ctaid=(50,0,0) tid=(63,0,0)
GPGPU-Sim uArch: cycles simulated: 13500  inst.: 7608832 (ipc=563.6) sim_rate=447578 (inst/sec) elapsed = 0:0:00:17 / Fri Mar  4 17:17:01 2016
GPGPU-Sim PTX: 7700000 instructions simulated : ctaid=(63,0,0) tid=(63,0,0)
GPGPU-Sim PTX: 7800000 instructions simulated : ctaid=(24,0,0) tid=(31,0,0)
GPGPU-Sim PTX: 7900000 instructions simulated : ctaid=(55,0,0) tid=(63,0,0)
GPGPU-Sim PTX: 8000000 instructions simulated : ctaid=(42,0,0) tid=(127,0,0)
GPGPU-Sim PTX: 8100000 instructions simulated : ctaid=(63,0,0) tid=(127,0,0)
GPGPU-Sim PTX: 8200000 instructions simulated : ctaid=(4,0,0) tid=(31,0,0)
GPGPU-Sim uArch: cycles simulated: 14500  inst.: 8256000 (ipc=569.4) sim_rate=458666 (inst/sec) elapsed = 0:0:00:18 / Fri Mar  4 17:17:02 2016
GPGPU-Sim PTX: 8300000 instructions simulated : ctaid=(19,0,0) tid=(63,0,0)
GPGPU-Sim PTX: 8400000 instructions simulated : ctaid=(10,0,0) tid=(127,0,0)
GPGPU-Sim PTX: 8500000 instructions simulated : ctaid=(88,0,0) tid=(95,0,0)
GPGPU-Sim PTX: 8600000 instructions simulated : ctaid=(11,0,0) tid=(31,0,0)
GPGPU-Sim PTX: 8700000 instructions simulated : ctaid=(61,0,0) tid=(31,0,0)
GPGPU-Sim PTX: 8800000 instructions simulated : ctaid=(68,0,0) tid=(95,0,0)
GPGPU-Sim PTX: 8900000 instructions simulated : ctaid=(9,0,0) tid=(127,0,0)
GPGPU-Sim uArch: cycles simulated: 15500  inst.: 8906848 (ipc=574.6) sim_rate=468781 (inst/sec) elapsed = 0:0:00:19 / Fri Mar  4 17:17:03 2016
GPGPU-Sim PTX: 9000000 instructions simulated : ctaid=(51,0,0) tid=(63,0,0)
GPGPU-Sim PTX: 9100000 instructions simulated : ctaid=(71,0,0) tid=(127,0,0)
GPGPU-Sim PTX: 9200000 instructions simulated : ctaid=(78,0,0) tid=(63,0,0)
GPGPU-Sim PTX: 9300000 instructions simulated : ctaid=(23,0,0) tid=(95,0,0)
GPGPU-Sim PTX: 9400000 instructions simulated : ctaid=(33,0,0) tid=(31,0,0)
GPGPU-Sim PTX: 9500000 instructions simulated : ctaid=(107,0,0) tid=(63,0,0)
GPGPU-Sim uArch: cycles simulated: 16500  inst.: 9546400 (ipc=578.6) sim_rate=477320 (inst/sec) elapsed = 0:0:00:20 / Fri Mar  4 17:17:04 2016
GPGPU-Sim PTX: 9600000 instructions simulated : ctaid=(47,0,0) tid=(31,0,0)
GPGPU-Sim PTX: 9700000 instructions simulated : ctaid=(114,0,0) tid=(31,0,0)
GPGPU-Sim PTX: 9800000 instructions simulated : ctaid=(88,0,0) tid=(31,0,0)
GPGPU-Sim PTX: 9900000 instructions simulated : ctaid=(51,0,0) tid=(63,0,0)
GPGPU-Sim uArch: cycles simulated: 17000  inst.: 9862304 (ipc=580.1) sim_rate=469633 (inst/sec) elapsed = 0:0:00:21 / Fri Mar  4 17:17:05 2016
GPGPU-Sim PTX: 10000000 instructions simulated : ctaid=(26,0,0) tid=(63,0,0)
GPGPU-Sim PTX: 10100000 instructions simulated : ctaid=(56,0,0) tid=(127,0,0)
GPGPU-Sim PTX: 10200000 instructions simulated : ctaid=(90,0,0) tid=(63,0,0)
GPGPU-Sim PTX: 10300000 instructions simulated : ctaid=(24,0,0) tid=(127,0,0)
GPGPU-Sim PTX: 10400000 instructions simulated : ctaid=(75,0,0) tid=(63,0,0)
GPGPU-Sim PTX: 10500000 instructions simulated : ctaid=(89,0,0) tid=(31,0,0)
GPGPU-Sim uArch: cycles simulated: 18000  inst.: 10496736 (ipc=583.2) sim_rate=477124 (inst/sec) elapsed = 0:0:00:22 / Fri Mar  4 17:17:06 2016
GPGPU-Sim PTX: 10600000 instructions simulated : ctaid=(20,0,0) tid=(95,0,0)
GPGPU-Sim PTX: 10700000 instructions simulated : ctaid=(91,0,0) tid=(63,0,0)
GPGPU-Sim PTX: 10800000 instructions simulated : ctaid=(48,0,0) tid=(95,0,0)
GPGPU-Sim PTX: 10900000 instructions simulated : ctaid=(64,0,0) tid=(63,0,0)
GPGPU-Sim PTX: 11000000 instructions simulated : ctaid=(110,0,0) tid=(95,0,0)
GPGPU-Sim PTX: 11100000 instructions simulated : ctaid=(108,0,0) tid=(63,0,0)
GPGPU-Sim uArch: cycles simulated: 19000  inst.: 11135360 (ipc=586.1) sim_rate=484146 (inst/sec) elapsed = 0:0:00:23 / Fri Mar  4 17:17:07 2016
GPGPU-Sim PTX: 11200000 instructions simulated : ctaid=(14,0,0) tid=(63,0,0)
GPGPU-Sim PTX: 11300000 instructions simulated : ctaid=(74,0,0) tid=(31,0,0)
GPGPU-Sim PTX: 11400000 instructions simulated : ctaid=(24,0,0) tid=(31,0,0)
GPGPU-Sim PTX: 11500000 instructions simulated : ctaid=(24,0,0) tid=(127,0,0)
GPGPU-Sim PTX: 11600000 instructions simulated : ctaid=(35,0,0) tid=(31,0,0)
GPGPU-Sim PTX: 11700000 instructions simulated : ctaid=(41,0,0) tid=(63,0,0)
GPGPU-Sim PTX: 11800000 instructions simulated : ctaid=(111,0,0) tid=(31,0,0)
GPGPU-Sim uArch: cycles simulated: 20000  inst.: 11773952 (ipc=588.7) sim_rate=490581 (inst/sec) elapsed = 0:0:00:24 / Fri Mar  4 17:17:08 2016
GPGPU-Sim PTX: 11900000 instructions simulated : ctaid=(33,0,0) tid=(63,0,0)
GPGPU-Sim PTX: 12000000 instructions simulated : ctaid=(91,0,0) tid=(31,0,0)
GPGPU-Sim PTX: 12100000 instructions simulated : ctaid=(95,0,0) tid=(95,0,0)
GPGPU-Sim uArch: cycles simulated: 20500  inst.: 12077920 (ipc=589.2) sim_rate=483116 (inst/sec) elapsed = 0:0:00:25 / Fri Mar  4 17:17:09 2016
GPGPU-Sim PTX: 12200000 instructions simulated : ctaid=(16,0,0) tid=(127,0,0)
GPGPU-Sim PTX: 12300000 instructions simulated : ctaid=(89,0,0) tid=(31,0,0)
GPGPU-Sim PTX: 12400000 instructions simulated : ctaid=(80,0,0) tid=(127,0,0)
GPGPU-Sim PTX: 12500000 instructions simulated : ctaid=(38,0,0) tid=(63,0,0)
GPGPU-Sim PTX: 12600000 instructions simulated : ctaid=(56,0,0) tid=(31,0,0)
GPGPU-Sim PTX: 12700000 instructions simulated : ctaid=(25,0,0) tid=(95,0,0)
GPGPU-Sim uArch: cycles simulated: 21500  inst.: 12730752 (ipc=592.1) sim_rate=489644 (inst/sec) elapsed = 0:0:00:26 / Fri Mar  4 17:17:10 2016
GPGPU-Sim PTX: 12800000 instructions simulated : ctaid=(60,0,0) tid=(127,0,0)
GPGPU-Sim PTX: 12900000 instructions simulated : ctaid=(60,0,0) tid=(31,0,0)
GPGPU-Sim PTX: 13000000 instructions simulated : ctaid=(6,0,0) tid=(127,0,0)
GPGPU-Sim PTX: 13100000 instructions simulated : ctaid=(22,0,0) tid=(63,0,0)
GPGPU-Sim PTX: 13200000 instructions simulated : ctaid=(111,0,0) tid=(63,0,0)
GPGPU-Sim PTX: 13300000 instructions simulated : ctaid=(66,0,0) tid=(127,0,0)
GPGPU-Sim uArch: cycles simulated: 22500  inst.: 13353728 (ipc=593.5) sim_rate=494582 (inst/sec) elapsed = 0:0:00:27 / Fri Mar  4 17:17:11 2016
GPGPU-Sim PTX: 13400000 instructions simulated : ctaid=(102,0,0) tid=(127,0,0)
GPGPU-Sim PTX: 13500000 instructions simulated : ctaid=(97,0,0) tid=(31,0,0)
GPGPU-Sim PTX: 13600000 instructions simulated : ctaid=(88,0,0) tid=(31,0,0)
GPGPU-Sim PTX: 13700000 instructions simulated : ctaid=(36,0,0) tid=(63,0,0)
GPGPU-Sim PTX: 13800000 instructions simulated : ctaid=(38,0,0) tid=(95,0,0)
GPGPU-Sim PTX: 13900000 instructions simulated : ctaid=(91,0,0) tid=(63,0,0)
GPGPU-Sim PTX: 14000000 instructions simulated : ctaid=(47,0,0) tid=(95,0,0)
GPGPU-Sim uArch: cycles simulated: 23500  inst.: 13963488 (ipc=594.2) sim_rate=498696 (inst/sec) elapsed = 0:0:00:28 / Fri Mar  4 17:17:12 2016
GPGPU-Sim PTX: 14100000 instructions simulated : ctaid=(79,0,0) tid=(95,0,0)
GPGPU-Sim PTX: 14200000 instructions simulated : ctaid=(54,0,0) tid=(127,0,0)
GPGPU-Sim PTX: 14300000 instructions simulated : ctaid=(33,0,0) tid=(95,0,0)
GPGPU-Sim uArch: cycles simulated: 24000  inst.: 14260960 (ipc=594.2) sim_rate=491757 (inst/sec) elapsed = 0:0:00:29 / Fri Mar  4 17:17:13 2016
GPGPU-Sim PTX: 14400000 instructions simulated : ctaid=(117,0,0) tid=(127,0,0)
GPGPU-Sim PTX: 14500000 instructions simulated : ctaid=(20,0,0) tid=(31,0,0)
GPGPU-Sim PTX: 14600000 instructions simulated : ctaid=(48,0,0) tid=(95,0,0)
GPGPU-Sim PTX: 14700000 instructions simulated : ctaid=(100,0,0) tid=(127,0,0)
GPGPU-Sim PTX: 14800000 instructions simulated : ctaid=(80,0,0) tid=(31,0,0)
GPGPU-Sim PTX: 14900000 instructions simulated : ctaid=(37,0,0) tid=(31,0,0)
GPGPU-Sim uArch: cycles simulated: 25000  inst.: 14863872 (ipc=594.6) sim_rate=495462 (inst/sec) elapsed = 0:0:00:30 / Fri Mar  4 17:17:14 2016
GPGPU-Sim PTX: 15000000 instructions simulated : ctaid=(23,0,0) tid=(127,0,0)
GPGPU-Sim PTX: 15100000 instructions simulated : ctaid=(37,0,0) tid=(95,0,0)
GPGPU-Sim PTX: 15200000 instructions simulated : ctaid=(55,0,0) tid=(127,0,0)
GPGPU-Sim PTX: 15300000 instructions simulated : ctaid=(66,0,0) tid=(63,0,0)
GPGPU-Sim PTX: 15400000 instructions simulated : ctaid=(65,0,0) tid=(127,0,0)
GPGPU-Sim uArch: cycles simulated: 26000  inst.: 15450080 (ipc=594.2) sim_rate=498389 (inst/sec) elapsed = 0:0:00:31 / Fri Mar  4 17:17:15 2016
GPGPU-Sim PTX: 15500000 instructions simulated : ctaid=(103,0,0) tid=(63,0,0)
GPGPU-Sim PTX: 15600000 instructions simulated : ctaid=(86,0,0) tid=(63,0,0)
GPGPU-Sim PTX: 15700000 instructions simulated : ctaid=(15,0,0) tid=(95,0,0)
GPGPU-Sim PTX: 15800000 instructions simulated : ctaid=(44,0,0) tid=(127,0,0)
GPGPU-Sim PTX: 15900000 instructions simulated : ctaid=(27,0,0) tid=(95,0,0)
GPGPU-Sim PTX: 16000000 instructions simulated : ctaid=(78,0,0) tid=(31,0,0)
GPGPU-Sim PTX: 16100000 instructions simulated : ctaid=(56,0,0) tid=(95,0,0)
GPGPU-Sim uArch: cycles simulated: 27000  inst.: 16085280 (ipc=595.8) sim_rate=502665 (inst/sec) elapsed = 0:0:00:32 / Fri Mar  4 17:17:16 2016
GPGPU-Sim PTX: 16200000 instructions simulated : ctaid=(61,0,0) tid=(63,0,0)
GPGPU-Sim PTX: 16300000 instructions simulated : ctaid=(45,0,0) tid=(95,0,0)
GPGPU-Sim PTX: 16400000 instructions simulated : ctaid=(35,0,0) tid=(63,0,0)
GPGPU-Sim PTX: 16500000 instructions simulated : ctaid=(12,0,0) tid=(127,0,0)
GPGPU-Sim PTX: 16600000 instructions simulated : ctaid=(110,0,0) tid=(63,0,0)
GPGPU-Sim PTX: 16700000 instructions simulated : ctaid=(16,0,0) tid=(63,0,0)
GPGPU-Sim uArch: cycles simulated: 28000  inst.: 16728736 (ipc=597.5) sim_rate=506931 (inst/sec) elapsed = 0:0:00:33 / Fri Mar  4 17:17:17 2016
GPGPU-Sim PTX: 16800000 instructions simulated : ctaid=(21,0,0) tid=(95,0,0)
GPGPU-Sim PTX: 16900000 instructions simulated : ctaid=(0,0,0) tid=(127,0,0)
GPGPU-Sim PTX: 17000000 instructions simulated : ctaid=(92,0,0) tid=(63,0,0)
GPGPU-Sim uArch: cycles simulated: 28500  inst.: 17051712 (ipc=598.3) sim_rate=501520 (inst/sec) elapsed = 0:0:00:34 / Fri Mar  4 17:17:18 2016
GPGPU-Sim PTX: 17100000 instructions simulated : ctaid=(76,0,0) tid=(31,0,0)
GPGPU-Sim PTX: 17200000 instructions simulated : ctaid=(56,0,0) tid=(31,0,0)
GPGPU-Sim PTX: 17300000 instructions simulated : ctaid=(27,0,0) tid=(63,0,0)
GPGPU-Sim PTX: 17400000 instructions simulated : ctaid=(25,0,0) tid=(31,0,0)
GPGPU-Sim PTX: 17500000 instructions simulated : ctaid=(66,0,0) tid=(95,0,0)
GPGPU-Sim PTX: 17600000 instructions simulated : ctaid=(12,0,0) tid=(127,0,0)
GPGPU-Sim uArch: cycles simulated: 29500  inst.: 17652704 (ipc=598.4) sim_rate=504362 (inst/sec) elapsed = 0:0:00:35 / Fri Mar  4 17:17:19 2016
GPGPU-Sim PTX: 17700000 instructions simulated : ctaid=(60,0,0) tid=(127,0,0)
GPGPU-Sim PTX: 17800000 instructions simulated : ctaid=(23,0,0) tid=(63,0,0)
GPGPU-Sim PTX: 17900000 instructions simulated : ctaid=(81,0,0) tid=(95,0,0)
GPGPU-Sim PTX: 18000000 instructions simulated : ctaid=(41,0,0) tid=(63,0,0)
GPGPU-Sim PTX: 18100000 instructions simulated : ctaid=(76,0,0) tid=(95,0,0)
GPGPU-Sim PTX: 18200000 instructions simulated : ctaid=(22,0,0) tid=(63,0,0)
GPGPU-Sim uArch: cycles simulated: 30500  inst.: 18222592 (ipc=597.5) sim_rate=506183 (inst/sec) elapsed = 0:0:00:36 / Fri Mar  4 17:17:20 2016
GPGPU-Sim PTX: 18300000 instructions simulated : ctaid=(118,0,0) tid=(95,0,0)
GPGPU-Sim PTX: 18400000 instructions simulated : ctaid=(27,0,0) tid=(63,0,0)
GPGPU-Sim PTX: 18500000 instructions simulated : ctaid=(67,0,0) tid=(95,0,0)
GPGPU-Sim PTX: 18600000 instructions simulated : ctaid=(21,0,0) tid=(63,0,0)
GPGPU-Sim PTX: 18700000 instructions simulated : ctaid=(119,0,0) tid=(63,0,0)
GPGPU-Sim PTX: 18800000 instructions simulated : ctaid=(91,0,0) tid=(95,0,0)
GPGPU-Sim uArch: cycles simulated: 31500  inst.: 18823840 (ipc=597.6) sim_rate=508752 (inst/sec) elapsed = 0:0:00:37 / Fri Mar  4 17:17:21 2016
GPGPU-Sim PTX: 18900000 instructions simulated : ctaid=(4,0,0) tid=(63,0,0)
GPGPU-Sim PTX: 19000000 instructions simulated : ctaid=(45,0,0) tid=(31,0,0)
GPGPU-Sim PTX: 19100000 instructions simulated : ctaid=(28,0,0) tid=(63,0,0)
GPGPU-Sim PTX: 19200000 instructions simulated : ctaid=(75,0,0) tid=(127,0,0)
GPGPU-Sim PTX: 19300000 instructions simulated : ctaid=(97,0,0) tid=(63,0,0)
GPGPU-Sim PTX: 19400000 instructions simulated : ctaid=(45,0,0) tid=(95,0,0)
GPGPU-Sim uArch: cycles simulated: 32500  inst.: 19450400 (ipc=598.5) sim_rate=511852 (inst/sec) elapsed = 0:0:00:38 / Fri Mar  4 17:17:22 2016
GPGPU-Sim PTX: 19500000 instructions simulated : ctaid=(64,0,0) tid=(63,0,0)
GPGPU-Sim PTX: 19600000 instructions simulated : ctaid=(36,0,0) tid=(63,0,0)
GPGPU-Sim PTX: 19700000 instructions simulated : ctaid=(64,0,0) tid=(127,0,0)
GPGPU-Sim PTX: 19800000 instructions simulated : ctaid=(13,0,0) tid=(63,0,0)
GPGPU-Sim uArch: cycles simulated: 33000  inst.: 19760320 (ipc=598.8) sim_rate=506674 (inst/sec) elapsed = 0:0:00:39 / Fri Mar  4 17:17:23 2016
GPGPU-Sim PTX: 19900000 instructions simulated : ctaid=(83,0,0) tid=(95,0,0)
GPGPU-Sim PTX: 20000000 instructions simulated : ctaid=(44,0,0) tid=(63,0,0)
GPGPU-Sim PTX: 20100000 instructions simulated : ctaid=(79,0,0) tid=(63,0,0)
GPGPU-Sim PTX: 20200000 instructions simulated : ctaid=(31,0,0) tid=(95,0,0)
GPGPU-Sim PTX: 20300000 instructions simulated : ctaid=(41,0,0) tid=(63,0,0)
GPGPU-Sim PTX: 20400000 instructions simulated : ctaid=(110,0,0) tid=(95,0,0)
GPGPU-Sim uArch: cycles simulated: 34000  inst.: 20364384 (ipc=599.0) sim_rate=509109 (inst/sec) elapsed = 0:0:00:40 / Fri Mar  4 17:17:24 2016
GPGPU-Sim PTX: 20500000 instructions simulated : ctaid=(19,0,0) tid=(127,0,0)
GPGPU-Sim PTX: 20600000 instructions simulated : ctaid=(2,0,0) tid=(31,0,0)
GPGPU-Sim PTX: 20700000 instructions simulated : ctaid=(25,0,0) tid=(127,0,0)
GPGPU-Sim PTX: 20800000 instructions simulated : ctaid=(40,0,0) tid=(127,0,0)
GPGPU-Sim PTX: 20900000 instructions simulated : ctaid=(117,0,0) tid=(63,0,0)
GPGPU-Sim PTX: 21000000 instructions simulated : ctaid=(29,0,0) tid=(95,0,0)
GPGPU-Sim uArch: cycles simulated: 35000  inst.: 20973472 (ipc=599.2) sim_rate=511548 (inst/sec) elapsed = 0:0:00:41 / Fri Mar  4 17:17:25 2016
GPGPU-Sim PTX: 21100000 instructions simulated : ctaid=(104,0,0) tid=(95,0,0)
GPGPU-Sim PTX: 21200000 instructions simulated : ctaid=(54,0,0) tid=(127,0,0)
GPGPU-Sim PTX: 21300000 instructions simulated : ctaid=(30,0,0) tid=(63,0,0)
GPGPU-Sim PTX: 21400000 instructions simulated : ctaid=(45,0,0) tid=(31,0,0)
GPGPU-Sim PTX: 21500000 instructions simulated : ctaid=(95,0,0) tid=(95,0,0)
GPGPU-Sim PTX: 21600000 instructions simulated : ctaid=(19,0,0) tid=(127,0,0)
GPGPU-Sim uArch: cycles simulated: 36000  inst.: 21589056 (ipc=599.7) sim_rate=514025 (inst/sec) elapsed = 0:0:00:42 / Fri Mar  4 17:17:26 2016
GPGPU-Sim PTX: 21700000 instructions simulated : ctaid=(10,0,0) tid=(31,0,0)
GPGPU-Sim PTX: 21800000 instructions simulated : ctaid=(18,0,0) tid=(63,0,0)
GPGPU-Sim PTX: 21900000 instructions simulated : ctaid=(9,0,0) tid=(127,0,0)
GPGPU-Sim uArch: cycles simulated: 36500  inst.: 21869856 (ipc=599.2) sim_rate=508601 (inst/sec) elapsed = 0:0:00:43 / Fri Mar  4 17:17:27 2016
GPGPU-Sim PTX: 22000000 instructions simulated : ctaid=(5,0,0) tid=(95,0,0)
GPGPU-Sim PTX: 22100000 instructions simulated : ctaid=(27,0,0) tid=(95,0,0)
GPGPU-Sim PTX: 22200000 instructions simulated : ctaid=(21,0,0) tid=(127,0,0)
GPGPU-Sim PTX: 22300000 instructions simulated : ctaid=(112,0,0) tid=(95,0,0)
GPGPU-Sim PTX: 22400000 instructions simulated : ctaid=(29,0,0) tid=(127,0,0)
GPGPU-Sim uArch: cycles simulated: 37500  inst.: 22442912 (ipc=598.5) sim_rate=510066 (inst/sec) elapsed = 0:0:00:44 / Fri Mar  4 17:17:28 2016
GPGPU-Sim PTX: 22500000 instructions simulated : ctaid=(89,0,0) tid=(31,0,0)
GPGPU-Sim PTX: 22600000 instructions simulated : ctaid=(58,0,0) tid=(63,0,0)
GPGPU-Sim PTX: 22700000 instructions simulated : ctaid=(19,0,0) tid=(127,0,0)
GPGPU-Sim PTX: 22800000 instructions simulated : ctaid=(10,0,0) tid=(31,0,0)
GPGPU-Sim PTX: 22900000 instructions simulated : ctaid=(99,0,0) tid=(95,0,0)
GPGPU-Sim PTX: 23000000 instructions simulated : ctaid=(14,0,0) tid=(95,0,0)
GPGPU-Sim uArch: cycles simulated: 38500  inst.: 23009376 (ipc=597.6) sim_rate=511319 (inst/sec) elapsed = 0:0:00:45 / Fri Mar  4 17:17:29 2016
GPGPU-Sim PTX: 23100000 instructions simulated : ctaid=(95,0,0) tid=(31,0,0)
GPGPU-Sim PTX: 23200000 instructions simulated : ctaid=(75,0,0) tid=(95,0,0)
GPGPU-Sim PTX: 23300000 instructions simulated : ctaid=(67,0,0) tid=(127,0,0)
GPGPU-Sim PTX: 23400000 instructions simulated : ctaid=(112,0,0) tid=(127,0,0)
GPGPU-Sim PTX: 23500000 instructions simulated : ctaid=(102,0,0) tid=(127,0,0)
GPGPU-Sim uArch: cycles simulated: 39500  inst.: 23557280 (ipc=596.4) sim_rate=512114 (inst/sec) elapsed = 0:0:00:46 / Fri Mar  4 17:17:30 2016
GPGPU-Sim PTX: 23600000 instructions simulated : ctaid=(79,0,0) tid=(63,0,0)
GPGPU-Sim PTX: 23700000 instructions simulated : ctaid=(35,0,0) tid=(95,0,0)
GPGPU-Sim PTX: 23800000 instructions simulated : ctaid=(50,0,0) tid=(127,0,0)
GPGPU-Sim PTX: 23900000 instructions simulated : ctaid=(12,0,0) tid=(63,0,0)
GPGPU-Sim PTX: 24000000 instructions simulated : ctaid=(13,0,0) tid=(127,0,0)
GPGPU-Sim PTX: 24100000 instructions simulated : ctaid=(72,0,0) tid=(63,0,0)
GPGPU-Sim uArch: cycles simulated: 40500  inst.: 24135712 (ipc=595.9) sim_rate=513525 (inst/sec) elapsed = 0:0:00:47 / Fri Mar  4 17:17:31 2016
GPGPU-Sim PTX: 24200000 instructions simulated : ctaid=(81,0,0) tid=(31,0,0)
GPGPU-Sim PTX: 24300000 instructions simulated : ctaid=(40,0,0) tid=(31,0,0)
GPGPU-Sim PTX: 24400000 instructions simulated : ctaid=(9,0,0) tid=(127,0,0)
GPGPU-Sim PTX: 24500000 instructions simulated : ctaid=(23,0,0) tid=(31,0,0)
GPGPU-Sim PTX: 24600000 instructions simulated : ctaid=(21,0,0) tid=(31,0,0)
GPGPU-Sim PTX: 24700000 instructions simulated : ctaid=(83,0,0) tid=(127,0,0)
GPGPU-Sim uArch: cycles simulated: 41500  inst.: 24727968 (ipc=595.9) sim_rate=515166 (inst/sec) elapsed = 0:0:00:48 / Fri Mar  4 17:17:32 2016
GPGPU-Sim PTX: 24800000 instructions simulated : ctaid=(64,0,0) tid=(127,0,0)
GPGPU-Sim PTX: 24900000 instructions simulated : ctaid=(87,0,0) tid=(31,0,0)
GPGPU-Sim PTX: 25000000 instructions simulated : ctaid=(69,0,0) tid=(31,0,0)
GPGPU-Sim uArch: cycles simulated: 42000  inst.: 25002016 (ipc=595.3) sim_rate=510245 (inst/sec) elapsed = 0:0:00:49 / Fri Mar  4 17:17:33 2016
GPGPU-Sim PTX: 25100000 instructions simulated : ctaid=(26,0,0) tid=(127,0,0)
GPGPU-Sim PTX: 25200000 instructions simulated : ctaid=(29,0,0) tid=(63,0,0)
GPGPU-Sim PTX: 25300000 instructions simulated : ctaid=(5,0,0) tid=(127,0,0)
GPGPU-Sim PTX: 25400000 instructions simulated : ctaid=(13,0,0) tid=(95,0,0)
GPGPU-Sim PTX: 25500000 instructions simulated : ctaid=(119,0,0) tid=(63,0,0)
GPGPU-Sim PTX: 25600000 instructions simulated : ctaid=(13,0,0) tid=(95,0,0)
GPGPU-Sim uArch: cycles simulated: 43000  inst.: 25594048 (ipc=595.2) sim_rate=511880 (inst/sec) elapsed = 0:0:00:50 / Fri Mar  4 17:17:34 2016
GPGPU-Sim PTX: 25700000 instructions simulated : ctaid=(45,0,0) tid=(63,0,0)
GPGPU-Sim PTX: 25800000 instructions simulated : ctaid=(64,0,0) tid=(31,0,0)
GPGPU-Sim PTX: 25900000 instructions simulated : ctaid=(103,0,0) tid=(31,0,0)
GPGPU-Sim PTX: 26000000 instructions simulated : ctaid=(46,0,0) tid=(95,0,0)
GPGPU-Sim PTX: 26100000 instructions simulated : ctaid=(85,0,0) tid=(127,0,0)
GPGPU-Sim PTX: 26200000 instructions simulated : ctaid=(107,0,0) tid=(95,0,0)
GPGPU-Sim uArch: cycles simulated: 44000  inst.: 26172128 (ipc=594.8) sim_rate=513178 (inst/sec) elapsed = 0:0:00:51 / Fri Mar  4 17:17:35 2016
GPGPU-Sim PTX: 26300000 instructions simulated : ctaid=(37,0,0) tid=(31,0,0)
GPGPU-Sim PTX: 26400000 instructions simulated : ctaid=(38,0,0) tid=(63,0,0)
GPGPU-Sim PTX: 26500000 instructions simulated : ctaid=(74,0,0) tid=(31,0,0)
GPGPU-Sim PTX: 26600000 instructions simulated : ctaid=(50,0,0) tid=(127,0,0)
GPGPU-Sim PTX: 26700000 instructions simulated : ctaid=(73,0,0) tid=(95,0,0)
GPGPU-Sim PTX: 26800000 instructions simulated : ctaid=(71,0,0) tid=(31,0,0)
GPGPU-Sim uArch: cycles simulated: 45000  inst.: 26777824 (ipc=595.1) sim_rate=514958 (inst/sec) elapsed = 0:0:00:52 / Fri Mar  4 17:17:36 2016
GPGPU-Sim PTX: 26900000 instructions simulated : ctaid=(77,0,0) tid=(63,0,0)
GPGPU-Sim PTX: 27000000 instructions simulated : ctaid=(2,0,0) tid=(31,0,0)
GPGPU-Sim PTX: 27100000 instructions simulated : ctaid=(55,0,0) tid=(31,0,0)
GPGPU-Sim PTX: 27200000 instructions simulated : ctaid=(48,0,0) tid=(63,0,0)
GPGPU-Sim PTX: 27300000 instructions simulated : ctaid=(4,0,0) tid=(31,0,0)
GPGPU-Sim uArch: cycles simulated: 46000  inst.: 27328960 (ipc=594.1) sim_rate=515640 (inst/sec) elapsed = 0:0:00:53 / Fri Mar  4 17:17:37 2016
GPGPU-Sim PTX: 27400000 instructions simulated : ctaid=(44,0,0) tid=(31,0,0)
GPGPU-Sim PTX: 27500000 instructions simulated : ctaid=(58,0,0) tid=(31,0,0)
GPGPU-Sim PTX: 27600000 instructions simulated : ctaid=(51,0,0) tid=(63,0,0)
GPGPU-Sim PTX: 27700000 instructions simulated : ctaid=(60,0,0) tid=(63,0,0)
GPGPU-Sim PTX: 27800000 instructions simulated : ctaid=(53,0,0) tid=(63,0,0)
GPGPU-Sim PTX: 27900000 instructions simulated : ctaid=(93,0,0) tid=(127,0,0)
GPGPU-Sim uArch: cycles simulated: 47000  inst.: 27901408 (ipc=593.6) sim_rate=516692 (inst/sec) elapsed = 0:0:00:54 / Fri Mar  4 17:17:38 2016
GPGPU-Sim PTX: 28000000 instructions simulated : ctaid=(3,0,0) tid=(31,0,0)
GPGPU-Sim PTX: 28100000 instructions simulated : ctaid=(16,0,0) tid=(95,0,0)
GPGPU-Sim PTX: 28200000 instructions simulated : ctaid=(54,0,0) tid=(63,0,0)
GPGPU-Sim uArch: cycles simulated: 47500  inst.: 28187936 (ipc=593.4) sim_rate=512507 (inst/sec) elapsed = 0:0:00:55 / Fri Mar  4 17:17:39 2016
GPGPU-Sim PTX: 28300000 instructions simulated : ctaid=(31,0,0) tid=(127,0,0)
GPGPU-Sim PTX: 28400000 instructions simulated : ctaid=(70,0,0) tid=(63,0,0)
GPGPU-Sim PTX: 28500000 instructions simulated : ctaid=(82,0,0) tid=(31,0,0)
GPGPU-Sim PTX: 28600000 instructions simulated : ctaid=(95,0,0) tid=(127,0,0)
GPGPU-Sim PTX: 28700000 instructions simulated : ctaid=(35,0,0) tid=(31,0,0)
GPGPU-Sim PTX: 28800000 instructions simulated : ctaid=(60,0,0) tid=(31,0,0)
GPGPU-Sim uArch: cycles simulated: 48500  inst.: 28795840 (ipc=593.7) sim_rate=514211 (inst/sec) elapsed = 0:0:00:56 / Fri Mar  4 17:17:40 2016
GPGPU-Sim PTX: 28900000 instructions simulated : ctaid=(50,0,0) tid=(95,0,0)
GPGPU-Sim PTX: 29000000 instructions simulated : ctaid=(29,0,0) tid=(63,0,0)
GPGPU-Sim PTX: 29100000 instructions simulated : ctaid=(10,0,0) tid=(95,0,0)
GPGPU-Sim PTX: 29200000 instructions simulated : ctaid=(42,0,0) tid=(31,0,0)
GPGPU-Sim PTX: 29300000 instructions simulated : ctaid=(2,0,0) tid=(63,0,0)
GPGPU-Sim uArch: cycles simulated: 49500  inst.: 29357632 (ipc=593.1) sim_rate=515046 (inst/sec) elapsed = 0:0:00:57 / Fri Mar  4 17:17:41 2016
GPGPU-Sim PTX: 29400000 instructions simulated : ctaid=(43,0,0) tid=(127,0,0)
GPGPU-Sim PTX: 29500000 instructions simulated : ctaid=(100,0,0) tid=(127,0,0)
GPGPU-Sim PTX: 29600000 instructions simulated : ctaid=(48,0,0) tid=(31,0,0)
GPGPU-Sim PTX: 29700000 instructions simulated : ctaid=(64,0,0) tid=(31,0,0)
GPGPU-Sim PTX: 29800000 instructions simulated : ctaid=(14,0,0) tid=(63,0,0)
GPGPU-Sim PTX: 29900000 instructions simulated : ctaid=(41,0,0) tid=(63,0,0)
GPGPU-Sim uArch: cycles simulated: 50500  inst.: 29918880 (ipc=592.5) sim_rate=515842 (inst/sec) elapsed = 0:0:00:58 / Fri Mar  4 17:17:42 2016
GPGPU-Sim PTX: 30000000 instructions simulated : ctaid=(10,0,0) tid=(31,0,0)
GPGPU-Sim PTX: 30100000 instructions simulated : ctaid=(102,0,0) tid=(127,0,0)
GPGPU-Sim PTX: 30200000 instructions simulated : ctaid=(32,0,0) tid=(127,0,0)
GPGPU-Sim PTX: 30300000 instructions simulated : ctaid=(33,0,0) tid=(63,0,0)
GPGPU-Sim PTX: 30400000 instructions simulated : ctaid=(101,0,0) tid=(63,0,0)
GPGPU-Sim PTX: 30500000 instructions simulated : ctaid=(56,0,0) tid=(63,0,0)
GPGPU-Sim uArch: cycles simulated: 51500  inst.: 30514272 (ipc=592.5) sim_rate=517191 (inst/sec) elapsed = 0:0:00:59 / Fri Mar  4 17:17:43 2016
GPGPU-Sim PTX: 30600000 instructions simulated : ctaid=(16,0,0) tid=(127,0,0)
GPGPU-Sim PTX: 30700000 instructions simulated : ctaid=(52,0,0) tid=(63,0,0)
GPGPU-Sim PTX: 30800000 instructions simulated : ctaid=(70,0,0) tid=(31,0,0)
GPGPU-Sim PTX: 30900000 instructions simulated : ctaid=(66,0,0) tid=(127,0,0)
GPGPU-Sim PTX: 31000000 instructions simulated : ctaid=(28,0,0) tid=(95,0,0)
GPGPU-Sim PTX: 31100000 instructions simulated : ctaid=(21,0,0) tid=(127,0,0)
GPGPU-Sim uArch: cycles simulated: 52500  inst.: 31077024 (ipc=591.9) sim_rate=517950 (inst/sec) elapsed = 0:0:01:00 / Fri Mar  4 17:17:44 2016
GPGPU-Sim PTX: 31200000 instructions simulated : ctaid=(14,0,0) tid=(31,0,0)
GPGPU-Sim PTX: 31300000 instructions simulated : ctaid=(67,0,0) tid=(31,0,0)
GPGPU-Sim PTX: 31400000 instructions simulated : ctaid=(5,0,0) tid=(95,0,0)
GPGPU-Sim uArch: cycles simulated: 53000  inst.: 31365024 (ipc=591.8) sim_rate=514180 (inst/sec) elapsed = 0:0:01:01 / Fri Mar  4 17:17:45 2016
GPGPU-Sim PTX: 31500000 instructions simulated : ctaid=(115,0,0) tid=(63,0,0)
GPGPU-Sim PTX: 31600000 instructions simulated : ctaid=(50,0,0) tid=(95,0,0)
GPGPU-Sim PTX: 31700000 instructions simulated : ctaid=(80,0,0) tid=(95,0,0)
GPGPU-Sim PTX: 31800000 instructions simulated : ctaid=(76,0,0) tid=(95,0,0)
GPGPU-Sim PTX: 31900000 instructions simulated : ctaid=(7,0,0) tid=(127,0,0)
GPGPU-Sim uArch: cycles simulated: 54000  inst.: 31944576 (ipc=591.6) sim_rate=515235 (inst/sec) elapsed = 0:0:01:02 / Fri Mar  4 17:17:46 2016
GPGPU-Sim PTX: 32000000 instructions simulated : ctaid=(96,0,0) tid=(127,0,0)
GPGPU-Sim PTX: 32100000 instructions simulated : ctaid=(80,0,0) tid=(63,0,0)
GPGPU-Sim PTX: 32200000 instructions simulated : ctaid=(15,0,0) tid=(31,0,0)
GPGPU-Sim PTX: 32300000 instructions simulated : ctaid=(27,0,0) tid=(63,0,0)
GPGPU-Sim PTX: 32400000 instructions simulated : ctaid=(64,0,0) tid=(63,0,0)
GPGPU-Sim uArch: cycles simulated: 55000  inst.: 32436096 (ipc=589.7) sim_rate=514858 (inst/sec) elapsed = 0:0:01:03 / Fri Mar  4 17:17:47 2016
GPGPU-Sim PTX: 32500000 instructions simulated : ctaid=(41,0,0) tid=(63,0,0)
GPGPU-Sim PTX: 32600000 instructions simulated : ctaid=(99,0,0) tid=(127,0,0)
GPGPU-Sim PTX: 32700000 instructions simulated : ctaid=(73,0,0) tid=(127,0,0)
GPGPU-Sim PTX: 32800000 instructions simulated : ctaid=(7,0,0) tid=(95,0,0)
GPGPU-Sim PTX: 32900000 instructions simulated : ctaid=(107,0,0) tid=(63,0,0)
GPGPU-Sim PTX: 33000000 instructions simulated : ctaid=(68,0,0) tid=(63,0,0)
GPGPU-Sim uArch: cycles simulated: 56000  inst.: 33030272 (ipc=589.8) sim_rate=516098 (inst/sec) elapsed = 0:0:01:04 / Fri Mar  4 17:17:48 2016
GPGPU-Sim PTX: 33100000 instructions simulated : ctaid=(36,0,0) tid=(127,0,0)
GPGPU-Sim PTX: 33200000 instructions simulated : ctaid=(47,0,0) tid=(127,0,0)
GPGPU-Sim PTX: 33300000 instructions simulated : ctaid=(118,0,0) tid=(95,0,0)
GPGPU-Sim PTX: 33400000 instructions simulated : ctaid=(13,0,0) tid=(127,0,0)
GPGPU-Sim PTX: 33500000 instructions simulated : ctaid=(14,0,0) tid=(63,0,0)
GPGPU-Sim PTX: 33600000 instructions simulated : ctaid=(57,0,0) tid=(31,0,0)
GPGPU-Sim uArch: cycles simulated: 57000  inst.: 33592736 (ipc=589.3) sim_rate=516811 (inst/sec) elapsed = 0:0:01:05 / Fri Mar  4 17:17:49 2016
GPGPU-Sim PTX: 33700000 instructions simulated : ctaid=(11,0,0) tid=(95,0,0)
GPGPU-Sim PTX: 33800000 instructions simulated : ctaid=(65,0,0) tid=(63,0,0)
GPGPU-Sim PTX: 33900000 instructions simulated : ctaid=(13,0,0) tid=(31,0,0)
GPGPU-Sim PTX: 34000000 instructions simulated : ctaid=(1,0,0) tid=(127,0,0)
GPGPU-Sim PTX: 34100000 instructions simulated : ctaid=(44,0,0) tid=(95,0,0)
GPGPU-Sim PTX: 34200000 instructions simulated : ctaid=(54,0,0) tid=(31,0,0)
GPGPU-Sim uArch: cycles simulated: 58000  inst.: 34170080 (ipc=589.1) sim_rate=517728 (inst/sec) elapsed = 0:0:01:06 / Fri Mar  4 17:17:50 2016
GPGPU-Sim PTX: 34300000 instructions simulated : ctaid=(108,0,0) tid=(95,0,0)
GPGPU-Sim PTX: 34400000 instructions simulated : ctaid=(104,0,0) tid=(31,0,0)
GPGPU-Sim PTX: 34500000 instructions simulated : ctaid=(49,0,0) tid=(63,0,0)
GPGPU-Sim PTX: 34600000 instructions simulated : ctaid=(49,0,0) tid=(63,0,0)
GPGPU-Sim PTX: 34700000 instructions simulated : ctaid=(112,0,0) tid=(31,0,0)
GPGPU-Sim uArch: cycles simulated: 59000  inst.: 34735616 (ipc=588.7) sim_rate=518442 (inst/sec) elapsed = 0:0:01:07 / Fri Mar  4 17:17:51 2016
GPGPU-Sim PTX: 34800000 instructions simulated : ctaid=(94,0,0) tid=(63,0,0)
GPGPU-Sim PTX: 34900000 instructions simulated : ctaid=(82,0,0) tid=(95,0,0)
GPGPU-Sim PTX: 35000000 instructions simulated : ctaid=(4,0,0) tid=(95,0,0)
GPGPU-Sim uArch: cycles simulated: 59500  inst.: 35007136 (ipc=588.4) sim_rate=514810 (inst/sec) elapsed = 0:0:01:08 / Fri Mar  4 17:17:52 2016
GPGPU-Sim PTX: 35100000 instructions simulated : ctaid=(61,0,0) tid=(63,0,0)
GPGPU-Sim PTX: 35200000 instructions simulated : ctaid=(16,0,0) tid=(63,0,0)
GPGPU-Sim PTX: 35300000 instructions simulated : ctaid=(6,0,0) tid=(31,0,0)
GPGPU-Sim PTX: 35400000 instructions simulated : ctaid=(4,0,0) tid=(31,0,0)
GPGPU-Sim PTX: 35500000 instructions simulated : ctaid=(37,0,0) tid=(63,0,0)
GPGPU-Sim PTX: 35600000 instructions simulated : ctaid=(30,0,0) tid=(63,0,0)
GPGPU-Sim uArch: cycles simulated: 60500  inst.: 35575616 (ipc=588.0) sim_rate=515588 (inst/sec) elapsed = 0:0:01:09 / Fri Mar  4 17:17:53 2016
GPGPU-Sim PTX: 35700000 instructions simulated : ctaid=(15,0,0) tid=(63,0,0)
GPGPU-Sim PTX: 35800000 instructions simulated : ctaid=(24,0,0) tid=(95,0,0)
GPGPU-Sim PTX: 35900000 instructions simulated : ctaid=(103,0,0) tid=(31,0,0)
GPGPU-Sim PTX: 36000000 instructions simulated : ctaid=(47,0,0) tid=(127,0,0)
GPGPU-Sim PTX: 36100000 instructions simulated : ctaid=(12,0,0) tid=(127,0,0)
GPGPU-Sim uArch: cycles simulated: 61500  inst.: 36135936 (ipc=587.6) sim_rate=516227 (inst/sec) elapsed = 0:0:01:10 / Fri Mar  4 17:17:54 2016
GPGPU-Sim PTX: 36200000 instructions simulated : ctaid=(32,0,0) tid=(95,0,0)
GPGPU-Sim PTX: 36300000 instructions simulated : ctaid=(47,0,0) tid=(127,0,0)
GPGPU-Sim PTX: 36400000 instructions simulated : ctaid=(44,0,0) tid=(127,0,0)
GPGPU-Sim PTX: 36500000 instructions simulated : ctaid=(17,0,0) tid=(63,0,0)
GPGPU-Sim PTX: 36600000 instructions simulated : ctaid=(59,0,0) tid=(63,0,0)
GPGPU-Sim PTX: 36700000 instructions simulated : ctaid=(62,0,0) tid=(63,0,0)
GPGPU-Sim uArch: cycles simulated: 62500  inst.: 36702624 (ipc=587.2) sim_rate=516938 (inst/sec) elapsed = 0:0:01:11 / Fri Mar  4 17:17:55 2016
GPGPU-Sim PTX: 36800000 instructions simulated : ctaid=(21,0,0) tid=(63,0,0)
GPGPU-Sim PTX: 36900000 instructions simulated : ctaid=(54,0,0) tid=(95,0,0)
GPGPU-Sim PTX: 37000000 instructions simulated : ctaid=(77,0,0) tid=(31,0,0)
GPGPU-Sim PTX: 37100000 instructions simulated : ctaid=(94,0,0) tid=(63,0,0)
GPGPU-Sim PTX: 37200000 instructions simulated : ctaid=(10,0,0) tid=(127,0,0)
GPGPU-Sim uArch: cycles simulated: 63500  inst.: 37250176 (ipc=586.6) sim_rate=517363 (inst/sec) elapsed = 0:0:01:12 / Fri Mar  4 17:17:56 2016
GPGPU-Sim PTX: 37300000 instructions simulated : ctaid=(69,0,0) tid=(95,0,0)
GPGPU-Sim PTX: 37400000 instructions simulated : ctaid=(107,0,0) tid=(63,0,0)
GPGPU-Sim PTX: 37500000 instructions simulated : ctaid=(119,0,0) tid=(127,0,0)
GPGPU-Sim PTX: 37600000 instructions simulated : ctaid=(102,0,0) tid=(63,0,0)
GPGPU-Sim PTX: 37700000 instructions simulated : ctaid=(19,0,0) tid=(63,0,0)
GPGPU-Sim PTX: 37800000 instructions simulated : ctaid=(101,0,0) tid=(95,0,0)
GPGPU-Sim uArch: cycles simulated: 64500  inst.: 37801344 (ipc=586.1) sim_rate=517826 (inst/sec) elapsed = 0:0:01:13 / Fri Mar  4 17:17:57 2016
GPGPU-Sim PTX: 37900000 instructions simulated : ctaid=(41,0,0) tid=(63,0,0)
GPGPU-Sim PTX: 38000000 instructions simulated : ctaid=(90,0,0) tid=(127,0,0)
GPGPU-Sim PTX: 38100000 instructions simulated : ctaid=(78,0,0) tid=(127,0,0)
GPGPU-Sim PTX: 38200000 instructions simulated : ctaid=(21,0,0) tid=(127,0,0)
GPGPU-Sim PTX: 38300000 instructions simulated : ctaid=(46,0,0) tid=(95,0,0)
GPGPU-Sim uArch: cycles simulated: 65500  inst.: 38354304 (ipc=585.6) sim_rate=518301 (inst/sec) elapsed = 0:0:01:14 / Fri Mar  4 17:17:58 2016
GPGPU-Sim PTX: 38400000 instructions simulated : ctaid=(45,0,0) tid=(31,0,0)
GPGPU-Sim PTX: 38500000 instructions simulated : ctaid=(1,0,0) tid=(31,0,0)
GPGPU-Sim PTX: 38600000 instructions simulated : ctaid=(3,0,0) tid=(31,0,0)
GPGPU-Sim PTX: 38700000 instructions simulated : ctaid=(9,0,0) tid=(31,0,0)
GPGPU-Sim PTX: 38800000 instructions simulated : ctaid=(57,0,0) tid=(31,0,0)
GPGPU-Sim PTX: 38900000 instructions simulated : ctaid=(44,0,0) tid=(95,0,0)
GPGPU-Sim uArch: cycles simulated: 66500  inst.: 38897600 (ipc=584.9) sim_rate=518634 (inst/sec) elapsed = 0:0:01:15 / Fri Mar  4 17:17:59 2016
GPGPU-Sim PTX: 39000000 instructions simulated : ctaid=(71,0,0) tid=(127,0,0)
GPGPU-Sim PTX: 39100000 instructions simulated : ctaid=(19,0,0) tid=(127,0,0)
GPGPU-Sim PTX: 39200000 instructions simulated : ctaid=(84,0,0) tid=(95,0,0)
GPGPU-Sim PTX: 39300000 instructions simulated : ctaid=(0,0,0) tid=(63,0,0)
GPGPU-Sim PTX: 39400000 instructions simulated : ctaid=(28,0,0) tid=(31,0,0)
GPGPU-Sim uArch: cycles simulated: 67500  inst.: 39452704 (ipc=584.5) sim_rate=519114 (inst/sec) elapsed = 0:0:01:16 / Fri Mar  4 17:18:00 2016
GPGPU-Sim PTX: 39500000 instructions simulated : ctaid=(11,0,0) tid=(95,0,0)
GPGPU-Sim PTX: 39600000 instructions simulated : ctaid=(24,0,0) tid=(95,0,0)
GPGPU-Sim PTX: 39700000 instructions simulated : ctaid=(80,0,0) tid=(127,0,0)
GPGPU-Sim uArch: cycles simulated: 68000  inst.: 39724160 (ipc=584.2) sim_rate=515898 (inst/sec) elapsed = 0:0:01:17 / Fri Mar  4 17:18:01 2016
GPGPU-Sim PTX: 39800000 instructions simulated : ctaid=(41,0,0) tid=(63,0,0)
GPGPU-Sim PTX: 39900000 instructions simulated : ctaid=(9,0,0) tid=(95,0,0)
GPGPU-Sim PTX: 40000000 instructions simulated : ctaid=(104,0,0) tid=(95,0,0)
GPGPU-Sim PTX: 40100000 instructions simulated : ctaid=(18,0,0) tid=(127,0,0)
GPGPU-Sim PTX: 40200000 instructions simulated : ctaid=(102,0,0) tid=(95,0,0)
GPGPU-Sim uArch: cycles simulated: 69000  inst.: 40256512 (ipc=583.4) sim_rate=516109 (inst/sec) elapsed = 0:0:01:18 / Fri Mar  4 17:18:02 2016
GPGPU-Sim PTX: 40300000 instructions simulated : ctaid=(67,0,0) tid=(63,0,0)
GPGPU-Sim PTX: 40400000 instructions simulated : ctaid=(94,0,0) tid=(95,0,0)
GPGPU-Sim PTX: 40500000 instructions simulated : ctaid=(14,0,0) tid=(31,0,0)
GPGPU-Sim PTX: 40600000 instructions simulated : ctaid=(57,0,0) tid=(63,0,0)
GPGPU-Sim PTX: 40700000 instructions simulated : ctaid=(10,0,0) tid=(63,0,0)
GPGPU-Sim PTX: 40800000 instructions simulated : ctaid=(65,0,0) tid=(31,0,0)
GPGPU-Sim uArch: cycles simulated: 70000  inst.: 40832864 (ipc=583.3) sim_rate=516871 (inst/sec) elapsed = 0:0:01:19 / Fri Mar  4 17:18:03 2016
GPGPU-Sim uArch: Shader 3 finished CTA #0 (70031,0), 7 CTAs running
GPGPU-Sim uArch: core:  3, cta: 0 initialized @(70032,0)
GPGPU-Sim PTX: 40900000 instructions simulated : ctaid=(46,0,0) tid=(127,0,0)
GPGPU-Sim PTX: 41000000 instructions simulated : ctaid=(35,0,0) tid=(127,0,0)
GPGPU-Sim PTX: 41100000 instructions simulated : ctaid=(25,0,0) tid=(31,0,0)
GPGPU-Sim PTX: 41200000 instructions simulated : ctaid=(48,0,0) tid=(127,0,0)
GPGPU-Sim PTX: 41300000 instructions simulated : ctaid=(51,0,0) tid=(31,0,0)
GPGPU-Sim PTX: 41400000 instructions simulated : ctaid=(118,0,0) tid=(95,0,0)
GPGPU-Sim uArch: cycles simulated: 71000  inst.: 41399584 (ipc=583.1) sim_rate=517494 (inst/sec) elapsed = 0:0:01:20 / Fri Mar  4 17:18:04 2016
GPGPU-Sim PTX: 41500000 instructions simulated : ctaid=(54,0,0) tid=(127,0,0)
GPGPU-Sim PTX: 41600000 instructions simulated : ctaid=(46,0,0) tid=(95,0,0)
GPGPU-Sim PTX: 41700000 instructions simulated : ctaid=(39,0,0) tid=(127,0,0)
GPGPU-Sim PTX: 41800000 instructions simulated : ctaid=(22,0,0) tid=(127,0,0)
GPGPU-Sim uArch: Shader 11 finished CTA #0 (71786,0), 7 CTAs running
GPGPU-Sim uArch: core: 11, cta: 0 initialized @(71787,0)
GPGPU-Sim PTX: 41900000 instructions simulated : ctaid=(50,0,0) tid=(127,0,0)
GPGPU-Sim uArch: Shader 12 finished CTA #1 (71869,0), 7 CTAs running
GPGPU-Sim uArch: core: 12, cta: 1 initialized @(71870,0)
GPGPU-Sim uArch: cycles simulated: 72000  inst.: 41937216 (ipc=582.5) sim_rate=517743 (inst/sec) elapsed = 0:0:01:21 / Fri Mar  4 17:18:05 2016
GPGPU-Sim PTX: 42000000 instructions simulated : ctaid=(67,0,0) tid=(63,0,0)
GPGPU-Sim uArch: Shader 0 finished CTA #2 (72058,0), 7 CTAs running
GPGPU-Sim uArch: core:  0, cta: 2 initialized @(72059,0)
GPGPU-Sim uArch: Shader 3 finished CTA #2 (72105,0), 7 CTAs running
GPGPU-Sim uArch: core:  3, cta: 2 initialized @(72106,0)
GPGPU-Sim PTX: 42100000 instructions simulated : ctaid=(65,0,0) tid=(63,0,0)
GPGPU-Sim PTX: 42200000 instructions simulated : ctaid=(96,0,0) tid=(31,0,0)
GPGPU-Sim PTX: 42300000 instructions simulated : ctaid=(11,0,0) tid=(95,0,0)
GPGPU-Sim uArch: Shader 4 finished CTA #1 (72673,0), 7 CTAs running
GPGPU-Sim uArch: core:  4, cta: 1 initialized @(72674,0)
GPGPU-Sim uArch: Shader 11 finished CTA #1 (72725,0), 7 CTAs running
GPGPU-Sim uArch: core: 11, cta: 1 initialized @(72726,0)
GPGPU-Sim uArch: Shader 14 finished CTA #0 (72728,0), 7 CTAs running
GPGPU-Sim uArch: core: 14, cta: 0 initialized @(72729,0)
GPGPU-Sim PTX: 42400000 instructions simulated : ctaid=(40,0,0) tid=(95,0,0)
GPGPU-Sim uArch: cycles simulated: 73000  inst.: 42441504 (ipc=581.4) sim_rate=517579 (inst/sec) elapsed = 0:0:01:22 / Fri Mar  4 17:18:06 2016
GPGPU-Sim uArch: Shader 2 finished CTA #1 (73019,0), 7 CTAs running
GPGPU-Sim uArch: core:  2, cta: 1 initialized @(73020,0)
GPGPU-Sim PTX: 42500000 instructions simulated : ctaid=(105,0,0) tid=(31,0,0)
GPGPU-Sim uArch: Shader 2 finished CTA #0 (73054,0), 7 CTAs running
GPGPU-Sim uArch: core:  2, cta: 0 initialized @(73055,0)
GPGPU-Sim uArch: Shader 8 finished CTA #0 (73057,0), 7 CTAs running
GPGPU-Sim uArch: core:  8, cta: 0 initialized @(73058,0)
GPGPU-Sim uArch: Shader 5 finished CTA #0 (73124,0), 7 CTAs running
GPGPU-Sim uArch: core:  5, cta: 0 initialized @(73125,0)
GPGPU-Sim uArch: Shader 8 finished CTA #2 (73128,0), 7 CTAs running
GPGPU-Sim uArch: core:  8, cta: 2 initialized @(73129,0)
GPGPU-Sim uArch: Shader 0 finished CTA #0 (73192,0), 7 CTAs running
GPGPU-Sim uArch: core:  0, cta: 0 initialized @(73193,0)
GPGPU-Sim uArch: Shader 13 finished CTA #2 (73195,0), 7 CTAs running
GPGPU-Sim uArch: core: 13, cta: 2 initialized @(73196,0)
GPGPU-Sim PTX: 42600000 instructions simulated : ctaid=(103,0,0) tid=(127,0,0)
GPGPU-Sim uArch: Shader 4 finished CTA #0 (73228,0), 7 CTAs running
GPGPU-Sim uArch: core:  4, cta: 0 initialized @(73229,0)
GPGPU-Sim uArch: Shader 7 finished CTA #0 (73328,0), 7 CTAs running
GPGPU-Sim uArch: core:  7, cta: 0 initialized @(73329,0)
GPGPU-Sim uArch: Shader 13 finished CTA #0 (73330,0), 7 CTAs running
GPGPU-Sim uArch: core: 13, cta: 0 initialized @(73331,0)
GPGPU-Sim PTX: 42700000 instructions simulated : ctaid=(61,0,0) tid=(63,0,0)
GPGPU-Sim uArch: Shader 0 finished CTA #1 (73424,0), 7 CTAs running
GPGPU-Sim uArch: core:  0, cta: 1 initialized @(73425,0)
GPGPU-Sim uArch: Shader 1 finished CTA #0 (73440,0), 7 CTAs running
GPGPU-Sim uArch: core:  1, cta: 0 initialized @(73441,0)
GPGPU-Sim uArch: Shader 13 finished CTA #1 (73461,0), 7 CTAs running
GPGPU-Sim uArch: core: 13, cta: 1 initialized @(73462,0)
GPGPU-Sim uArch: Shader 6 finished CTA #1 (73517,0), 7 CTAs running
GPGPU-Sim uArch: core:  6, cta: 1 initialized @(73518,0)
GPGPU-Sim PTX: 42800000 instructions simulated : ctaid=(51,0,0) tid=(127,0,0)
GPGPU-Sim uArch: Shader 5 finished CTA #1 (73607,0), 7 CTAs running
GPGPU-Sim uArch: core:  5, cta: 1 initialized @(73608,0)
GPGPU-Sim uArch: Shader 14 finished CTA #2 (73609,0), 7 CTAs running
GPGPU-Sim uArch: core: 14, cta: 2 initialized @(73610,0)
GPGPU-Sim uArch: Shader 4 finished CTA #2 (73617,0), 7 CTAs running
GPGPU-Sim uArch: core:  4, cta: 2 initialized @(73618,0)
GPGPU-Sim uArch: Shader 1 finished CTA #1 (73620,0), 7 CTAs running
GPGPU-Sim uArch: core:  1, cta: 1 initialized @(73621,0)
GPGPU-Sim uArch: Shader 6 finished CTA #0 (73661,0), 7 CTAs running
GPGPU-Sim uArch: core:  6, cta: 0 initialized @(73662,0)
GPGPU-Sim uArch: Shader 7 finished CTA #1 (73764,0), 7 CTAs running
GPGPU-Sim uArch: core:  7, cta: 1 initialized @(73765,0)
GPGPU-Sim PTX: 42900000 instructions simulated : ctaid=(68,0,0) tid=(31,0,0)
GPGPU-Sim uArch: Shader 10 finished CTA #1 (73905,0), 7 CTAs running
GPGPU-Sim uArch: core: 10, cta: 1 initialized @(73906,0)
GPGPU-Sim uArch: Shader 4 finished CTA #3 (73920,0), 7 CTAs running
GPGPU-Sim uArch: core:  4, cta: 3 initialized @(73921,0)
GPGPU-Sim PTX: 43000000 instructions simulated : ctaid=(122,0,0) tid=(95,0,0)
GPGPU-Sim uArch: cycles simulated: 74000  inst.: 42958560 (ipc=580.5) sim_rate=517573 (inst/sec) elapsed = 0:0:01:23 / Fri Mar  4 17:18:07 2016
GPGPU-Sim uArch: Shader 6 finished CTA #2 (74185,0), 7 CTAs running
GPGPU-Sim uArch: core:  6, cta: 2 initialized @(74186,0)
GPGPU-Sim PTX: 43100000 instructions simulated : ctaid=(75,0,0) tid=(95,0,0)
GPGPU-Sim uArch: Shader 9 finished CTA #0 (74301,0), 7 CTAs running
GPGPU-Sim uArch: core:  9, cta: 0 initialized @(74302,0)
GPGPU-Sim PTX: 43200000 instructions simulated : ctaid=(130,0,0) tid=(63,0,0)
GPGPU-Sim uArch: Shader 5 finished CTA #2 (74392,0), 7 CTAs running
GPGPU-Sim uArch: core:  5, cta: 2 initialized @(74393,0)
GPGPU-Sim uArch: Shader 10 finished CTA #0 (74393,0), 7 CTAs running
GPGPU-Sim uArch: core: 10, cta: 0 initialized @(74394,0)
GPGPU-Sim uArch: Shader 7 finished CTA #2 (74437,0), 7 CTAs running
GPGPU-Sim uArch: core:  7, cta: 2 initialized @(74438,0)
GPGPU-Sim PTX: 43300000 instructions simulated : ctaid=(100,0,0) tid=(63,0,0)
GPGPU-Sim uArch: Shader 10 finished CTA #2 (74602,0), 7 CTAs running
GPGPU-Sim uArch: core: 10, cta: 2 initialized @(74603,0)
GPGPU-Sim uArch: Shader 9 finished CTA #2 (74650,0), 7 CTAs running
GPGPU-Sim uArch: core:  9, cta: 2 initialized @(74651,0)
GPGPU-Sim uArch: Shader 11 finished CTA #3 (74651,0), 7 CTAs running
GPGPU-Sim uArch: core: 11, cta: 3 initialized @(74652,0)
GPGPU-Sim uArch: Shader 0 finished CTA #3 (74654,0), 7 CTAs running
GPGPU-Sim uArch: Shader 3 finished CTA #1 (74654,0), 7 CTAs running
GPGPU-Sim uArch: core:  0, cta: 3 initialized @(74655,0)
GPGPU-Sim uArch: core:  3, cta: 1 initialized @(74655,0)
GPGPU-Sim PTX: 43400000 instructions simulated : ctaid=(86,0,0) tid=(63,0,0)
GPGPU-Sim uArch: Shader 12 finished CTA #2 (74858,0), 7 CTAs running
GPGPU-Sim uArch: core: 12, cta: 2 initialized @(74859,0)
GPGPU-Sim uArch: Shader 10 finished CTA #3 (74906,0), 7 CTAs running
GPGPU-Sim uArch: core: 10, cta: 3 initialized @(74907,0)
GPGPU-Sim uArch: Shader 9 finished CTA #1 (74910,0), 7 CTAs running
GPGPU-Sim uArch: core:  9, cta: 1 initialized @(74911,0)
GPGPU-Sim uArch: Shader 12 finished CTA #0 (74918,0), 7 CTAs running
GPGPU-Sim uArch: core: 12, cta: 0 initialized @(74919,0)
GPGPU-Sim uArch: Shader 2 finished CTA #2 (74926,0), 7 CTAs running
GPGPU-Sim uArch: core:  2, cta: 2 initialized @(74927,0)
GPGPU-Sim uArch: Shader 6 finished CTA #3 (74930,0), 7 CTAs running
GPGPU-Sim uArch: core:  6, cta: 3 initialized @(74931,0)
GPGPU-Sim PTX: 43500000 instructions simulated : ctaid=(122,0,0) tid=(95,0,0)
GPGPU-Sim uArch: cycles simulated: 75000  inst.: 43473216 (ipc=579.6) sim_rate=517538 (inst/sec) elapsed = 0:0:01:24 / Fri Mar  4 17:18:08 2016
GPGPU-Sim uArch: Shader 9 finished CTA #3 (75040,0), 7 CTAs running
GPGPU-Sim uArch: core:  9, cta: 3 initialized @(75041,0)
GPGPU-Sim PTX: 43600000 instructions simulated : ctaid=(111,0,0) tid=(31,0,0)
GPGPU-Sim uArch: Shader 1 finished CTA #2 (75155,0), 7 CTAs running
GPGPU-Sim uArch: core:  1, cta: 2 initialized @(75156,0)
GPGPU-Sim uArch: Shader 8 finished CTA #1 (75164,0), 7 CTAs running
GPGPU-Sim uArch: core:  8, cta: 1 initialized @(75165,0)
GPGPU-Sim PTX: 43700000 instructions simulated : ctaid=(129,0,0) tid=(127,0,0)
GPGPU-Sim uArch: Shader 0 finished CTA #4 (75419,0), 7 CTAs running
GPGPU-Sim uArch: core:  0, cta: 4 initialized @(75420,0)
GPGPU-Sim uArch: cycles simulated: 75500  inst.: 43733024 (ipc=579.2) sim_rate=514506 (inst/sec) elapsed = 0:0:01:25 / Fri Mar  4 17:18:09 2016
GPGPU-Sim PTX: 43800000 instructions simulated : ctaid=(126,0,0) tid=(127,0,0)
GPGPU-Sim PTX: 43900000 instructions simulated : ctaid=(28,0,0) tid=(95,0,0)
GPGPU-Sim PTX: 44000000 instructions simulated : ctaid=(89,0,0) tid=(63,0,0)
GPGPU-Sim PTX: 44100000 instructions simulated : ctaid=(148,0,0) tid=(95,0,0)
GPGPU-Sim PTX: 44200000 instructions simulated : ctaid=(118,0,0) tid=(63,0,0)
GPGPU-Sim uArch: Shader 4 finished CTA #4 (76266,0), 7 CTAs running
GPGPU-Sim uArch: core:  4, cta: 4 initialized @(76267,0)
GPGPU-Sim PTX: 44300000 instructions simulated : ctaid=(103,0,0) tid=(95,0,0)
[...]
dq_lat_table:0 	0 	0 	0 	0 	0 	0 	0 	0 	0 	0 	0 	0 	0 	0 	0 	0 	0 	0 	0 	0 	0 	0 	0 	0 	0 	0 	0 	0 	0 	0 	0 	
mf_lat_table:0 	0 	0 	0 	0 	0 	0 	766 	13558 	154721 	117006 	147 	0 	0 	0 	0 	0 	0 	0 	0 	0 	0 	0 	0 	0 	0 	0 	0 	0 	0 	0 	0 	
icnt2mem_lat_table:0 	0 	0 	13212 	5419 	15229 	53424 	55051 	102380 	41214 	389 	0 	0 	0 	0 	0 	0 	0 	0 	0 	0 	0 	0 	0 	
icnt2sh_lat_table:0 	0 	0 	2 	155971 	5181 	44 	0 	0 	0 	0 	239 	1667 	3330 	6515 	12100 	20924 	35230 	44995 	0 	0 	0 	0 	0 	
mf_lat_pw_table:0 	0 	0 	0 	0 	0 	0 	13 	27 	583 	263 	0 	0 	0 	0 	0 	0 	0 	0 	0 	0 	0 	0 	0 	0 	0 	0 	0 	0 	0 	0 	0 	
maximum concurrent accesses to same row:
dram[0]:        20        40        18        22        24        26        18        21        20        22        23        33        24        25        21        20 
dram[1]:        20        23        23        13        25        22        21        16        27        15        26        21        18        23        25        16 
dram[2]:        17        21        12        18        23        23        16        30        15        25        28        27        16        25        20        20 
dram[3]:        19        23        15        16        23        25        24        25        13        17        24        30        16        15        18        21 
dram[4]:        24        19        17        18        27        29        19        22        14        21        21        27        26        23        22        24 
dram[5]:        20        16        23        18        23        27        20        21        21        18        16        26        20        18        26        18 
maximum service time to same row:
dram[0]:      2841      2780      3926      3785      3585      2321      2425      2341      5557      4302      2321      2059      2455      2568      5653      4127 
dram[1]:      2859      2694      4021      3788      3571      2515      2359      2385      5351      4401      1959      2527      2850      2837      5575      4073 
dram[2]:      2255      2828      4033      3751      2674      2303      2376      2666      4569      4500      2750      2269      3000      2654      4448      4360 
dram[3]:      2111      2750      4042      3972      3470      2303      2360      3447      4615      4410      2300      1966      2481      2649      4275      4274 
dram[4]:      2787      2789      3926      3985      2847      2309      2416      2297      4305      4576      3028      2018      3469      2803      4176      4062 
dram[5]:      3450      2809      3876      3816      2262      2339      3517      2369      4724      3902      1973      2550      3103      2612      4062      4110 
average row accesses per activate:
dram[0]:  1.594231  1.604688  1.579278  1.581961  1.603325  1.596222  1.604348  1.617951  1.578397  1.590202  1.590253  1.621332  1.606408  1.597250  1.592305  1.601801 
dram[1]:  1.565567  1.568906  1.563315  1.566219  1.575000  1.583237  1.588099  1.603348  1.567639  1.564693  1.582726  1.596050  1.579411  1.592293  1.585917  1.598918 
dram[2]:  1.578039  1.601032  1.572209  1.568979  1.585720  1.604605  1.612788  1.629719  1.572143  1.590732  1.591709  1.605750  1.592636  1.612302  1.601486  1.607704 
dram[3]:  1.587363  1.579884  1.562524  1.564584  1.577220  1.583558  1.602029  1.588962  1.561437  1.565596  1.584231  1.582118  1.580422  1.569365  1.584450  1.591328 
dram[4]:  1.594071  1.585423  1.589095  1.581049  1.615108  1.591158  1.600000  1.599843  1.576343  1.561785  1.594986  1.582881  1.618102  1.608833  1.600313  1.604216 
dram[5]:  1.570604  1.576597  1.570000  1.573903  1.582753  1.591173  1.612726  1.593521  1.574363  1.568887  1.579532  1.596221  1.589615  1.590246  1.604183  1.589518 
average row locality = 392527/247124 = 1.588381
number of total memory accesses made:
dram[0]:         0         0         0         0         0         0         0         0         0         0         0         0         0         0         0         0 
dram[1]:         0         0         0         0         0         0         0         0         0         0         0         0         0         0         0         0 
dram[2]:         0         0         0         0         0         0         0         0         0         0         0         0         0         0         0         0 
dram[3]:         0         0         0         0         0         0         0         0         0         0         0         0         0         0         0         0 
dram[4]:         0         0         0         0         0         0         0         0         0         0         0         0         0         0         0         0 
dram[5]:         0         0         0         0         0         0         0         0         0         0         0         0         0         0         0         0 
total accesses: 0
min_bank_accesses = 0!
min_chip_accesses = 0!
number of total read accesses:
dram[0]:      2751      2758      2744      2754      2761      2768      2749      2766      2765      2779      2768      2781      2750      2756      2785      2780 
dram[1]:      2798      2804      2794      2800      2805      2810      2799      2809      2825      2836      2812      2813      2816      2822      2832      2826 
dram[2]:      2742      2750      2748      2746      2755      2750      2752      2749      2774      2773      2762      2768      2755      2752      2783      2778 
dram[3]:      2788      2800      2806      2802      2798      2811      2798      2807      2818      2829      2811      2813      2807      2818      2825      2835 
dram[4]:      2753      2763      2743      2758      2753      2775      2750      2761      2766      2783      2766      2778      2765      2769      2780      2798 
dram[5]:      2800      2811      2802      2809      2804      2819      2799      2821      2827      2833      2814      2828      2821      2829      2830      2843 
total reads: 267670
bank skew: 2843/2742 = 1.04
chip skew: 45090/44137 = 1.02
number of total write accesses:
dram[0]:      1284      1281      1280      1280      1289      1288      1310      1308      1312      1311      1311      1308      1311      1309      1312      1311 
dram[1]:      1285      1283      1280      1280      1290      1289      1311      1310      1312      1312      1311      1308      1311      1310      1312      1312 
dram[2]:      1282      1283      1280      1280      1287      1292      1309      1309      1312      1312      1308      1309      1311      1311      1312      1312 
dram[3]:      1282      1284      1280      1280      1287      1292      1308      1310      1312      1312      1308      1310      1310      1311      1312      1312 
dram[4]:      1280      1283      1279      1280      1288      1292      1306      1309      1312      1312      1306      1309      1311      1311      1312      1312 
dram[5]:      1282      1285      1280      1280      1289      1291      1307      1311      1312      1312      1307      1311      1312      1312      1312      1312 
total reads: 124857
bank skew: 1312/1279 = 1.03
chip skew: 20816/20802 = 1.00
average mf latency per bank:
dram[0]:        660       644       660       652       670       663       687       677       661       654       662       655       680       661       681       683
dram[1]:        680       664       695       681       702       691       705       701       696       677       685       672       698       685       722       718
dram[2]:        656       671       674       689       677       688       694       711       665       684       674       687       689       698       693       707
dram[3]:        670       692       677       707       685       715       700       725       674       698       680       701       685       706       702       744
dram[4]:        644       651       659       668       662       668       672       691       653       654       644       660       657       678       677       690
dram[5]:        771       858       785       875       787       877       805       888       786       877       777       860       791       883       816       894
maximum mf latency per bank:
dram[0]:       2079      2303      2366      1970      2209      2079      1977      2137      1964      2217      2283      2442      2089      2429      2022      2155
dram[1]:       1830      1862      1921      2168      1974      2015      1950      1968      2397      2292      1935      1889      2326      1940      2098      2252
dram[2]:       1934      2069      1980      1899      2150      1876      1993      2075      1840      2277      1952      2094      1990      2156      1987      1951
dram[3]:       1945      1885      2026      2219      2111      2155      2001      2238      2016      2135      1889      1993      1995      2283      2197      2311
dram[4]:       2079      1876      1928      2259      2192      1934      2080      1848      1891      2072      1809      2011      2032      1869      1923      1962
dram[5]:       1998      2188      2381      2776      2008      2228      2162      2246      2084      2361      2095      2216      2146      2152      2345      2255

Number of Memory Banks Accessed per Memory Operation per Warp (from 0):
0	0	0	0	0	0	0	0	0	0	0	0	0	0	0	0	0	0	0	0	0	0	0	0	0	0	0	0	0	0	0	0	0	0	0	0	0	0	0	0	0	0	0	0	0	0	0	0	0	0	0	0	0	0	0	0	0	0	0	0	0	0	0	0	0	0	0	0	0	0	0	0	0	0	0	0	0	0	0	0	0	0	0	0	0	0	0	0	0	0	0	0	0	0	0	0	
Average # of Memory Banks Accessed per Memory Operation per Warp=-nan

position of mrq chosen
0	0	0	0	0	0	0	0	0	0	0	0	0	0	0	0	

average position of mrq chosen = -nan
Memory Partition 0: 
Cache L2_bank_000:
MSHR contents

Cache L2_bank_001:
MSHR contents

In Dram Latency Queue (total = 0): 
DRAM[0]: 16 bks, busW=4 BL=8 CL=12, tRRD=2 tCCD=6, tRCD=12 tRAS=28 tRP=12 tRC=40
n_cmd=587317 n_nop=285715 n_act=40703 n_pre=40687 n_req=65020 n_rd=176860 n_write=43352 bw_util=0.7499
n_activity=569373 dram_eff=0.7735
bk0: 11004a 295605i bk1: 11032a 292134i bk2: 10976a 278943i bk3: 11016a 268560i bk4: 11044a 257995i bk5: 11072a 248552i bk6: 10996a 230784i bk7: 11064a 213285i bk8: 11060a 288349i bk9: 11116a 278910i bk10: 11072a 272436i bk11: 11124a 265753i bk12: 11000a 252878i bk13: 11024a 245854i bk14: 11140a 226355i bk15: 11120a 213041i 
dram_util_bins: 0 0 0 0 0 0 0 0 0 0
dram_eff_bins: 0 0 0 0 0 0 0 0 0 0
mrqq: max=16 avg=14.8096
Memory Partition 1: 
Cache L2_bank_002:
MSHR contents

Cache L2_bank_003:
MSHR contents

In Dram Latency Queue (total = 0): 
DRAM[1]: 16 bks, busW=4 BL=8 CL=12, tRRD=2 tCCD=6, tRCD=12 tRAS=28 tRP=12 tRC=40
n_cmd=587317 n_nop=280593 n_act=41656 n_pre=41640 n_req=65817 n_rd=180004 n_write=43424 bw_util=0.7608
n_activity=575573 dram_eff=0.7764
bk0: 11192a 293848i bk1: 11216a 284655i bk2: 11176a 274079i bk3: 11200a 260513i bk4: 11220a 252353i bk5: 11240a 238749i bk6: 11196a 224250i bk7: 11236a 206596i bk8: 11300a 282856i bk9: 11344a 274738i bk10: 11248a 271825i bk11: 11252a 262086i bk12: 11264a 249119i bk13: 11288a 235111i bk14: 11328a 218953i bk15: 11304a 199857i 
dram_util_bins: 0 0 0 0 0 0 0 0 0 0
dram_eff_bins: 0 0 0 0 0 0 0 0 0 0
mrqq: max=16 avg=15.0841
Memory Partition 2: 
Cache L2_bank_004:
MSHR contents

Cache L2_bank_005:
MSHR contents

In Dram Latency Queue (total = 0): 
DRAM[2]: 16 bks, busW=4 BL=8 CL=12, tRRD=2 tCCD=6, tRCD=12 tRAS=28 tRP=12 tRC=40
n_cmd=587317 n_nop=285997 n_act=40710 n_pre=40694 n_req=64946 n_rd=176548 n_write=43368 bw_util=0.7489
n_activity=568945 dram_eff=0.7731
bk0: 10968a 297247i bk1: 11000a 284470i bk2: 10992a 274976i bk3: 10984a 267305i bk4: 11020a 259402i bk5: 11000a 246917i bk6: 11008a 231979i bk7: 10996a 212405i bk8: 11096a 289485i bk9: 11092a 278396i bk10: 11048a 278096i bk11: 11072a 261100i bk12: 11020a 254123i bk13: 11008a 243029i bk14: 11132a 225367i bk15: 11112a 209957i 
dram_util_bins: 0 0 0 0 0 0 0 0 0 0
dram_eff_bins: 0 0 0 0 0 0 0 0 0 0
mrqq: max=16 avg=14.8498
Memory Partition 3: 
Cache L2_bank_006:
MSHR contents

Cache L2_bank_007:
MSHR contents

In Dram Latency Queue (total = 0): 
DRAM[3]: 16 bks, busW=4 BL=8 CL=12, tRRD=2 tCCD=6, tRCD=12 tRAS=28 tRP=12 tRC=40
n_cmd=587317 n_nop=280753 n_act=41657 n_pre=41641 n_req=65776 n_rd=179864 n_write=43402 bw_util=0.7603
n_activity=575361 dram_eff=0.7761
bk0: 11152a 291365i bk1: 11200a 278449i bk2: 11224a 271756i bk3: 11208a 259522i bk4: 11192a 249915i bk5: 11244a 240167i bk6: 11192a 230145i bk7: 11228a 202068i bk8: 11272a 283520i bk9: 11316a 274443i bk10: 11244a 266472i bk11: 11252a 258332i bk12: 11228a 246586i bk13: 11272a 234615i bk14: 11300a 217364i bk15: 11340a 199390i 
dram_util_bins: 0 0 0 0 0 0 0 0 0 0
dram_eff_bins: 0 0 0 0 0 0 0 0 0 0
mrqq: max=16 avg=15.1397
Memory Partition 4: 
Cache L2_bank_008:
MSHR contents

Cache L2_bank_009:
MSHR contents

In Dram Latency Queue (total = 0): 
DRAM[4]: 16 bks, busW=4 BL=8 CL=12, tRRD=2 tCCD=6, tRCD=12 tRAS=28 tRP=12 tRC=40
n_cmd=587317 n_nop=285347 n_act=40822 n_pre=40806 n_req=65063 n_rd=177044 n_write=43298 bw_util=0.7503
n_activity=569692 dram_eff=0.7735
bk0: 11012a 301943i bk1: 11052a 280536i bk2: 10972a 276497i bk3: 11032a 267023i bk4: 11012a 253930i bk5: 11100a 243909i bk6: 11000a 233601i bk7: 11044a 209713i bk8: 11064a 291650i bk9: 11132a 280981i bk10: 11064a 278794i bk11: 11112a 265734i bk12: 11060a 258087i bk13: 11076a 240669i bk14: 11120a 224547i bk15: 11192a 209764i 
dram_util_bins: 0 0 0 0 0 0 0 0 0 0
dram_eff_bins: 0 0 0 0 0 0 0 0 0 0
mrqq: max=16 avg=14.8074
Memory Partition 5: 
Cache L2_bank_010:
MSHR contents

Cache L2_bank_011:
MSHR contents

In Dram Latency Queue (total = 0): 
DRAM[5]: 16 bks, busW=4 BL=8 CL=12, tRRD=2 tCCD=6, tRCD=12 tRAS=28 tRP=12 tRC=40
n_cmd=587317 n_nop=280673 n_act=41576 n_pre=41560 n_req=65905 n_rd=180360 n_write=43148 bw_util=0.7611
n_activity=576182 dram_eff=0.7758
bk0: 11200a 290732i bk1: 11244a 274781i bk2: 11208a 274552i bk3: 11236a 258306i bk4: 11216a 251838i bk5: 11276a 240386i bk6: 11196a 227959i bk7: 11284a 203999i bk8: 11308a 281122i bk9: 11332a 272247i bk10: 11256a 270341i bk11: 11312a 258794i bk12: 11284a 245050i bk13: 11316a 234236i bk14: 11320a 217029i bk15: 11372a 201261i 
dram_util_bins: 0 0 0 0 0 0 0 0 0 0
dram_eff_bins: 0 0 0 0 0 0 0 0 0 0
mrqq: max=16 avg=15.3111

========= L2 cache stats =========
L2_cache_bank[0]: Access = 23793, Miss = 22073, Miss_rate = 0.928, Pending_hits = 1127, Reservation_fails = 10754
L2_cache_bank[1]: Access = 23714, Miss = 22142, Miss_rate = 0.934, Pending_hits = 1018, Reservation_fails = 20543
L2_cache_bank[2]: Access = 24024, Miss = 22481, Miss_rate = 0.936, Pending_hits = 990, Reservation_fails = 13989
L2_cache_bank[3]: Access = 23917, Miss = 22520, Miss_rate = 0.942, Pending_hits = 857, Reservation_fails = 21402
L2_cache_bank[4]: Access = 23766, Miss = 22071, Miss_rate = 0.929, Pending_hits = 1128, Reservation_fails = 10624
L2_cache_bank[5]: Access = 23717, Miss = 22066, Miss_rate = 0.930, Pending_hits = 1101, Reservation_fails = 16516
L2_cache_bank[6]: Access = 23965, Miss = 22451, Miss_rate = 0.937, Pending_hits = 953, Reservation_fails = 16701
L2_cache_bank[7]: Access = 23995, Miss = 22515, Miss_rate = 0.938, Pending_hits = 930, Reservation_fails = 21313
L2_cache_bank[8]: Access = 23625, Miss = 22076, Miss_rate = 0.934, Pending_hits = 1049, Reservation_fails = 8449
L2_cache_bank[9]: Access = 23874, Miss = 22185, Miss_rate = 0.929, Pending_hits = 1116, Reservation_fails = 15663
L2_cache_bank[10]: Access = 23859, Miss = 22497, Miss_rate = 0.943, Pending_hits = 884, Reservation_fails = 26893
L2_cache_bank[11]: Access = 24069, Miss = 22593, Miss_rate = 0.939, Pending_hits = 1022, Reservation_fails = 41759
L2_total_cache_accesses = 286318
L2_total_cache_misses = 267670
L2_total_cache_miss_rate = 0.9349
L2_total_cache_pending_hits = 12175
L2_total_cache_reservation_fails = 224606
L2_total_cache_breakdown:
	L2_cache_stats_breakdown[GLOBAL_ACC_R][HIT] = 1076
	L2_cache_stats_breakdown[GLOBAL_ACC_R][MISS] = 160107
	L2_cache_stats_breakdown[GLOBAL_ACC_R][RESERVATION_FAIL] = 132595
	L2_cache_stats_breakdown[CONST_ACC_R][HIT] = 11
	L2_cache_stats_breakdown[CONST_ACC_R][HIT_RESERVED] = 3
	L2_cache_stats_breakdown[CONST_ACC_R][MISS] = 1
	L2_cache_stats_breakdown[CONST_ACC_R][RESERVATION_FAIL] = 113
	L2_cache_stats_breakdown[GLOBAL_ACC_W][HIT] = 5282
	L2_cache_stats_breakdown[GLOBAL_ACC_W][HIT_RESERVED] = 12160
	L2_cache_stats_breakdown[GLOBAL_ACC_W][MISS] = 107558
	L2_cache_stats_breakdown[GLOBAL_ACC_W][RESERVATION_FAIL] = 91207
	L2_cache_stats_breakdown[INST_ACC_R][HIT] = 104
	L2_cache_stats_breakdown[INST_ACC_R][HIT_RESERVED] = 12
	L2_cache_stats_breakdown[INST_ACC_R][MISS] = 4
	L2_cache_stats_breakdown[INST_ACC_R][RESERVATION_FAIL] = 691
L2_cache_data_port_util = 0.011
L2_cache_fill_port_util = 0.401

icnt_total_pkts_mem_to_simt=1576292
icnt_total_pkts_simt_to_mem=786318
LD_mem_lat_dist  0 0 0 0 0 0 0 0 0 0 0 0 0 0 0 0 0 0 0 0 0 0 0 0 0 0 0
ST_mem_lat_dist  0 0 0 0 0 0 0 0 0 0 0 0 0 0 0 0 0 0 0 0 0 0 0 0 0 0 0
----------------------------Interconnect-DETAILS--------------------------------
Class 0:
Packet latency average = 73.5832
	minimum = 6
	maximum = 1134
Network latency average = 49.2425
	minimum = 6
	maximum = 1088
Slowest packet = 465049
Flit latency average = 28.7583
	minimum = 6
	maximum = 1084
Slowest flit = 1911643
Fragmentation average = 0.911672
	minimum = 0
	maximum = 621
Injected packet rate average = 0.0476667
	minimum = 0.0413069 (at node 11)
	maximum = 0.0540952 (at node 26)
Accepted packet rate average = 0.0476667
	minimum = 0.0413069 (at node 11)
	maximum = 0.0540952 (at node 26)
Injected flit rate average = 0.196666
	minimum = 0.113874 (at node 11)
	maximum = 0.299541 (at node 26)
Accepted flit rate average= 0.196666
	minimum = 0.146737 (at node 23)
	maximum = 0.244351 (at node 4)
Injected packet length average = 4.12585
Accepted packet length average = 4.12585
Total in-flight flits = 0 (0 measured)
====== Overall Traffic Statistics ======
====== Traffic class 0 ======
Packet latency average = 73.5832 (1 samples)
	minimum = 6 (1 samples)
	maximum = 1134 (1 samples)
Network latency average = 49.2425 (1 samples)
	minimum = 6 (1 samples)
	maximum = 1088 (1 samples)
Flit latency average = 28.7583 (1 samples)
	minimum = 6 (1 samples)
	maximum = 1084 (1 samples)
Fragmentation average = 0.911672 (1 samples)
	minimum = 0 (1 samples)
	maximum = 621 (1 samples)
Injected packet rate average = 0.0476667 (1 samples)
	minimum = 0.0413069 (1 samples)
	maximum = 0.0540952 (1 samples)
Accepted packet rate average = 0.0476667 (1 samples)
	minimum = 0.0413069 (1 samples)
	maximum = 0.0540952 (1 samples)
Injected flit rate average = 0.196666 (1 samples)
	minimum = 0.113874 (1 samples)
	maximum = 0.299541 (1 samples)
Accepted flit rate average = 0.196666 (1 samples)
	minimum = 0.146737 (1 samples)
	maximum = 0.244351 (1 samples)
Injected packet size average = 4.12585 (1 samples)
Accepted packet size average = 4.12585 (1 samples)
Hops average = 1 (1 samples)
----------------------------END-of-Interconnect-DETAILS-------------------------


gpgpu_simulation_time = 0 days, 0 hrs, 7 min, 33 sec (453 sec)
gpgpu_simulation_rate = 432189 (inst/sec)
gpgpu_simulation_rate = 982 (cycle/sec)
GPGPU-Sim: synchronize waiting for inactive GPU simulation
GPGPU-Sim API: Stream Manager State
GPGPU-Sim: detected inactive GPU simulation thread
Options count             : 4000000     
BlackScholesGPU() time    : 451014.906250 msec
Effective memory bandwidth: 0.000089 GB/s
Gigaoptions per second    : 0.000009     
Reading back GPU results...
Checking the results...
...running CPU calculations.
Comparing the results...
L1 norm: 1.729535E-07
Max absolute error: 1.192093E-05
TEST PASSED
Shutting down...
...releasing GPU memory.
...releasing CPU memory.
Shutdown done.
GPGPU-Sim: exit_simulation called
GPGPU-Sim: simulation thread signaled exit

Press ENTER to exit...
