

        *** GPGPU-Sim Simulator Version 3.2.2  [build 0] ***


GPGPU-Sim PTX: simulation mode 0 (can change with PTX_SIM_MODE_FUNC environment variable:
               1=functional simulation only, 0=detailed performance simulator)
GPGPU-Sim: Configuration options:

-network_mode                           1 # Interconnection network mode
-inter_config_file   config_fermi_islip.icnt # Interconnection network config file
-gpgpu_ptx_use_cuobjdump                    1 # Use cuobjdump to extract ptx and sass from binaries
-gpgpu_experimental_lib_support                    0 # Try to extract code from cuda libraries [Broken because of unknown cudaGetExportTable]
-gpgpu_ptx_convert_to_ptxplus                    0 # Convert SASS (native ISA) to ptxplus and run ptxplus
-gpgpu_ptx_force_max_capability                   20 # Force maximum compute capability
-gpgpu_ptx_inst_debug_to_file                    0 # Dump executed instructions' debug information to file
-gpgpu_ptx_inst_debug_file       inst_debug.txt # Executed instructions' debug output file
-gpgpu_ptx_inst_debug_thread_uid                    1 # Thread UID for executed instructions' debug output
-gpgpu_simd_model                       1 # 1 = post-dominator
-gpgpu_shader_core_pipeline              1536:32 # shader core pipeline config, i.e., {<nthread>:<warpsize>}
-gpgpu_tex_cache:l1  4:128:24,L:R:m:N:L,F:128:4,128:2 # per-shader L1 texture cache  (READ-ONLY) config  {<nsets>:<bsize>:<assoc>,<rep>:<wr>:<alloc>:<wr_alloc>,<mshr>:<N>:<merge>,<mq>:<rf>}
-gpgpu_const_cache:l1 64:64:2,L:R:f:N:L,A:2:32,4 # per-shader L1 constant memory cache  (READ-ONLY) config  {<nsets>:<bsize>:<assoc>,<rep>:<wr>:<alloc>:<wr_alloc>,<mshr>:<N>:<merge>,<mq>} 
-gpgpu_cache:il1     4:128:4,L:R:f:N:L,A:2:32,4 # shader L1 instruction cache config  {<nsets>:<bsize>:<assoc>,<rep>:<wr>:<alloc>:<wr_alloc>,<mshr>:<N>:<merge>,<mq>} 
-gpgpu_cache:dl1     32:128:4,L:L:m:N:H,A:32:8,8 # per-shader L1 data cache config  {<nsets>:<bsize>:<assoc>,<rep>:<wr>:<alloc>:<wr_alloc>,<mshr>:<N>:<merge>,<mq> | none}
-gpgpu_cache:dl1PrefL1                 none # per-shader L1 data cache config  {<nsets>:<bsize>:<assoc>,<rep>:<wr>:<alloc>:<wr_alloc>,<mshr>:<N>:<merge>,<mq> | none}
-gpgpu_cache:dl1PreShared                 none # per-shader L1 data cache config  {<nsets>:<bsize>:<assoc>,<rep>:<wr>:<alloc>:<wr_alloc>,<mshr>:<N>:<merge>,<mq> | none}
-gmem_skip_L1D                          0 # global memory access skip L1D cache (implements -Xptxas -dlcm=cg, default=no skip)
-gpgpu_perfect_mem                      0 # enable perfect memory mode (no cache miss)
-n_regfile_gating_group                    4 # group of lanes that should be read/written together)
-gpgpu_clock_gated_reg_file                    0 # enable clock gated reg file for power calculations
-gpgpu_clock_gated_lanes                    0 # enable clock gated lanes for power calculations
-gpgpu_shader_registers                32768 # Number of registers per shader core. Limits number of concurrent CTAs. (default 8192)
-gpgpu_shader_cta                       8 # Maximum number of concurrent CTAs in shader (default 8)
-gpgpu_num_cta_barriers                   16 # Maximum number of named barriers per CTA (default 16)
-gpgpu_n_clusters                      15 # number of processing clusters
-gpgpu_n_cores_per_cluster                    1 # number of simd cores per cluster
-gpgpu_n_cluster_ejection_buffer_size                    8 # number of packets in ejection buffer
-gpgpu_n_ldst_response_buffer_size                    2 # number of response packets in ld/st unit ejection buffer
-gpgpu_shmem_size                   16384 # Size of shared memory per shader core (default 16kB)
-gpgpu_shmem_size                   49152 # Size of shared memory per shader core (default 16kB)
-gpgpu_shmem_size_PrefL1                16384 # Size of shared memory per shader core (default 16kB)
-gpgpu_shmem_size_PrefShared                16384 # Size of shared memory per shader core (default 16kB)
-gpgpu_shmem_num_banks                   32 # Number of banks in the shared memory in each shader core (default 16)
-gpgpu_shmem_limited_broadcast                    0 # Limit shared memory to do one broadcast per cycle (default on)
-gpgpu_shmem_warp_parts                    1 # Number of portions a warp is divided into for shared memory bank conflict check 
-gpgpu_warpdistro_shader                   -1 # Specify which shader core to collect the warp size distribution from
-gpgpu_warp_issue_shader                    0 # Specify which shader core to collect the warp issue distribution from
-gpgpu_local_mem_map                    1 # Mapping from local memory space address to simulated GPU physical address space (default = enabled)
-gpgpu_num_reg_banks                   16 # Number of register banks (default = 8)
-gpgpu_reg_bank_use_warp_id                    0 # Use warp ID in mapping registers to banks (default = off)
-gpgpu_operand_collector_num_units_sp                    6 # number of collector units (default = 4)
-gpgpu_operand_collector_num_units_sfu                    8 # number of collector units (default = 4)
-gpgpu_operand_collector_num_units_mem                    2 # number of collector units (default = 2)
-gpgpu_operand_collector_num_units_gen                    0 # number of collector units (default = 0)
-gpgpu_operand_collector_num_in_ports_sp                    2 # number of collector unit in ports (default = 1)
-gpgpu_operand_collector_num_in_ports_sfu                    1 # number of collector unit in ports (default = 1)
-gpgpu_operand_collector_num_in_ports_mem                    1 # number of collector unit in ports (default = 1)
-gpgpu_operand_collector_num_in_ports_gen                    0 # number of collector unit in ports (default = 0)
-gpgpu_operand_collector_num_out_ports_sp                    2 # number of collector unit in ports (default = 1)
-gpgpu_operand_collector_num_out_ports_sfu                    1 # number of collector unit in ports (default = 1)
-gpgpu_operand_collector_num_out_ports_mem                    1 # number of collector unit in ports (default = 1)
-gpgpu_operand_collector_num_out_ports_gen                    0 # number of collector unit in ports (default = 0)
-gpgpu_coalesce_arch                   13 # Coalescing arch (default = 13, anything else is off for now)
-gpgpu_num_sched_per_core                    2 # Number of warp schedulers per core
-gpgpu_max_insn_issue_per_warp                    1 # Max number of instructions that can be issued per warp in one cycle by scheduler
-gpgpu_simt_core_sim_order                    1 # Select the simulation order of cores in a cluster (0=Fix, 1=Round-Robin)
-gpgpu_pipeline_widths        2,1,1,2,1,1,2 # Pipeline widths ID_OC_SP,ID_OC_SFU,ID_OC_MEM,OC_EX_SP,OC_EX_SFU,OC_EX_MEM,EX_WB
-gpgpu_num_sp_units                     2 # Number of SP units (default=1)
-gpgpu_num_sfu_units                    1 # Number of SF units (default=1)
-gpgpu_num_mem_units                    1 # Number if ldst units (default=1) WARNING: not hooked up to anything
-gpgpu_scheduler                      gto # Scheduler configuration: < lrr | gto | two_level_active > If two_level_active:<num_active_warps>:<inner_prioritization>:<outer_prioritization>For complete list of prioritization values see shader.h enum scheduler_prioritization_typeDefault: gto
-gpgpu_dram_scheduler                    1 # 0 = fifo, 1 = FR-FCFS (defaul)
-gpgpu_dram_partition_queues              8:8:8:8 # i2$:$2d:d2$:$2i
-l2_ideal                               0 # Use a ideal L2 cache that always hit
-gpgpu_cache:dl2     64:128:8,L:B:m:W:L,A:32:4,4:0,32 # unified banked L2 data cache config  {<nsets>:<bsize>:<assoc>,<rep>:<wr>:<alloc>:<wr_alloc>,<mshr>:<N>:<merge>,<mq>}
-gpgpu_cache:dl2_texture_only                    0 # L2 cache used for texture only
-gpgpu_n_mem                            6 # number of memory modules (e.g. memory controllers) in gpu
-gpgpu_n_sub_partition_per_mchannel                    2 # number of memory subpartition in each memory module
-gpgpu_n_mem_per_ctrlr                    2 # number of memory chips per memory controller
-gpgpu_memlatency_stat                   14 # track and display latency statistics 0x2 enables MC, 0x4 enables queue logs
-gpgpu_frfcfs_dram_sched_queue_size                   16 # 0 = unlimited (default); # entries per chip
-gpgpu_dram_return_queue_size                  116 # 0 = unlimited (default); # entries per chip
-gpgpu_dram_buswidth                    2 # default = 4 bytes (8 bytes per cycle at DDR)
-gpgpu_dram_burst_length                    8 # Burst length of each DRAM request (default = 4 data bus cycle)
-dram_data_command_freq_ratio                    4 # Frequency ratio between DRAM data bus and command bus (default = 2 times, i.e. DDR)
-gpgpu_dram_timing_opt nbk=16:CCD=2:RRD=6:RCD=12:RAS=28:RP=12:RC=40: CL=12:WL=4:CDLR=5:WR=12:nbkgrp=4:CCDL=3:RTPL=2 # DRAM timing parameters = {nbk:tCCD:tRRD:tRCD:tRAS:tRP:tRC:CL:WL:tCDLR:tWR:nbkgrp:tCCDL:tRTPL}
-rop_latency                          120 # ROP queue latency (default 85)
-dram_latency                         100 # DRAM latency (default 30)
-gpgpu_mem_addr_mapping dramid@8;00000000.00000000.00000000.00000000.0000RRRR.RRRRRRRR.BBBCCCCB.CCSSSSSS # mapping memory address to dram model {dramid@<start bit>;<memory address map>}
-gpgpu_mem_addr_test                    0 # run sweep test to check address mapping for aliased address
-gpgpu_mem_address_mask                    1 # 0 = old addressing mask, 1 = new addressing mask, 2 = new add. mask + flipped bank sel and chip sel bits
-gpuwattch_xml_file  gpuwattch_gtx480.xml # GPUWattch XML file
-power_simulation_enabled                    0 # Turn on power simulator (1=On, 0=Off)
-power_per_cycle_dump                    0 # Dump detailed power output each cycle
-power_trace_enabled                    0 # produce a file for the power trace (1=On, 0=Off)
-power_trace_zlevel                     6 # Compression level of the power trace output log (0=no comp, 9=highest)
-steady_power_levels_enabled                    0 # produce a file for the steady power levels (1=On, 0=Off)
-steady_state_definition                  8:4 # allowed deviation:number of samples
-gpgpu_max_cycle                        0 # terminates gpu simulation early (0 = no limit)
-gpgpu_max_insn                         0 # terminates gpu simulation early (0 = no limit)
-gpgpu_max_cta                          0 # terminates gpu simulation early (0 = no limit)
-gpgpu_runtime_stat                   500 # display runtime statistics such as dram utilization {<freq>:<flag>}
-liveness_message_freq                    1 # Minimum number of seconds between simulation liveness messages (0 = always print)
-gpgpu_flush_l1_cache                    0 # Flush L1 cache at the end of each kernel call
-gpgpu_flush_l2_cache                    0 # Flush L2 cache at the end of each kernel call
-gpgpu_deadlock_detect                    1 # Stop the simulation at deadlock (1=on (default), 0=off)
-gpgpu_ptx_instruction_classification                    0 # if enabled will classify ptx instruction types per kernel (Max 255 kernels now)
-gpgpu_ptx_sim_mode                     0 # Select between Performance (default) or Functional simulation (1)
-gpgpu_clock_domains 700.0:700.0:700.0:924.0 # Clock Domain Frequencies in MhZ {<Core Clock>:<ICNT Clock>:<L2 Clock>:<DRAM Clock>}
-gpgpu_max_concurrent_kernel                    8 # maximum kernels that can run concurrently on GPU
-gpgpu_cflog_interval                    0 # Interval between each snapshot in control flow logger
-visualizer_enabled                     0 # Turn on visualizer output (1=On, 0=Off)
-visualizer_outputfile                 NULL # Specifies the output log file for visualizer
-visualizer_zlevel                      6 # Compression level of the visualizer output log (0=no comp, 9=highest)
-trace_enabled                          0 # Turn on traces
-trace_components                    none # comma seperated list of traces to enable. Complete list found in trace_streams.tup. Default none
-trace_sampling_core                    0 # The core which is printed using CORE_DPRINTF. Default 0
-trace_sampling_memory_partition                   -1 # The memory partition which is printed using MEMPART_DPRINTF. Default -1 (i.e. all)
-enable_ptx_file_line_stats                    1 # Turn on PTX source line statistic profiling. (1 = On)
-ptx_line_stats_filename gpgpu_inst_stats.txt # Output file for PTX source line statistics.
-save_embedded_ptx                      0 # saves ptx files embedded in binary as <n>.ptx
-keep                                   0 # keep intermediate files created by GPGPU-Sim when interfacing with external programs
-gpgpu_ptx_save_converted_ptxplus                    0 # Saved converted ptxplus to a file
-ptx_opcode_latency_int         4,13,4,5,145 # Opcode latencies for integers <ADD,MAX,MUL,MAD,DIV>Default 1,1,19,25,145
-ptx_opcode_latency_fp          4,13,4,5,39 # Opcode latencies for single precision floating points <ADD,MAX,MUL,MAD,DIV>Default 1,1,1,1,30
-ptx_opcode_latency_dp         8,19,8,8,330 # Opcode latencies for double precision floating points <ADD,MAX,MUL,MAD,DIV>Default 8,8,8,8,335
-ptx_opcode_initiation_int            1,2,2,1,8 # Opcode initiation intervals for integers <ADD,MAX,MUL,MAD,DIV>Default 1,1,4,4,32
-ptx_opcode_initiation_fp            1,2,1,1,4 # Opcode initiation intervals for single precision floating points <ADD,MAX,MUL,MAD,DIV>Default 1,1,1,1,5
-ptx_opcode_initiation_dp         8,16,8,8,130 # Opcode initiation intervals for double precision floating points <ADD,MAX,MUL,MAD,DIV>Default 8,8,8,8,130
DRAM Timing Options:
nbk                                    16 # number of banks
CCD                                     2 # column to column delay
RRD                                     6 # minimal delay between activation of rows in different banks
RCD                                    12 # row to column delay
RAS                                    28 # time needed to activate row
RP                                     12 # time needed to precharge (deactivate) row
RC                                     40 # row cycle time
CDLR                                    5 # switching from write to read (changes tWTR)
WR                                     12 # last data-in to row precharge
CL                                     12 # CAS latency
WL                                      4 # Write latency
nbkgrp                                  4 # number of bank groups
CCDL                                    3 # column to column delay between accesses to different bank groups
RTPL                                    2 # read to precharge delay between accesses to different bank groups
Total number of memory sub partition = 12
addr_dec_mask[CHIP]  = 0000000000000000 	high:64 low:0
addr_dec_mask[BK]    = 000000000000e100 	high:16 low:8
addr_dec_mask[ROW]   = 000000000fff0000 	high:28 low:16
addr_dec_mask[COL]   = 0000000000001eff 	high:13 low:0
addr_dec_mask[BURST] = 000000000000003f 	high:6 low:0
sub_partition_id_mask = 0000000000000100
GPGPU-Sim uArch: clock freqs: 700000000.000000:700000000.000000:700000000.000000:924000000.000000
GPGPU-Sim uArch: clock periods: 0.00000000142857142857:0.00000000142857142857:0.00000000142857142857:0.00000000108225108225
*** Initializing Memory Statistics ***
GPGPU-Sim uArch: interconnect node map (shaderID+MemID to icntID)
GPGPU-Sim uArch: Memory nodes ID start from index: 15
GPGPU-Sim uArch:    0   1   2   3   4
GPGPU-Sim uArch:    5   6   7   8   9
GPGPU-Sim uArch:   10  11  12  13  14
GPGPU-Sim uArch:   15  16  17  18  19
GPGPU-Sim uArch:   20  21  22  23  24
GPGPU-Sim uArch:   25  26
GPGPU-Sim uArch: interconnect node reverse map (icntID to shaderID+MemID)
GPGPU-Sim uArch: Memory nodes start from ID: 15
GPGPU-Sim uArch:    0   1   2   3   4
GPGPU-Sim uArch:    5   6   7   8   9
GPGPU-Sim uArch:   10  11  12  13  14
GPGPU-Sim uArch:   15  16  17  18  19
GPGPU-Sim uArch:   20  21  22  23  24
GPGPU-Sim uArch:   25  26
e389dacb331e7fcddf4abf4a164344f1  /sciclone/data20/adwait/applications/benchmarks/CUDA/BlackScholes/gpgpu_ptx_sim__BlackScholes
GPGPU-Sim uArch: performance model initialization complete.
GPGPU-Sim PTX: __cudaRegisterFatBinary, fat_cubin_handle = 1, filename=BlackScholes.cu
self exe links to: /sciclone/data20/adwait/applications/benchmarks/CUDA/BlackScholes/gpgpu_ptx_sim__BlackScholes
Running md5sum using "md5sum /sciclone/data20/adwait/applications/benchmarks/CUDA/BlackScholes/gpgpu_ptx_sim__BlackScholes "
Parsing file _cuobjdump_complete_output_bK9yNf
######### cuobjdump parser ########
## Adding new section ELF
Adding arch: sm_20
Adding identifier: BlackScholes.cu
## Adding new section PTX
Adding ptx filename: _cuobjdump_1.ptx
Adding arch: sm_20
Adding identifier: BlackScholes.cu
Done parsing!!!
GPGPU-Sim PTX: __cudaRegisterFunction _Z15BlackScholesGPUPfS_S_S_S_ffi : hostFun 0x0x405752, fat_cubin_handle = 1
GPGPU-Sim PTX: instruction assembly for function '_Z15BlackScholesGPUPfS_S_S_S_ffi'...   done.
GPGPU-Sim PTX: finding reconvergence points for '_Z15BlackScholesGPUPfS_S_S_S_ffi'...
GPGPU-Sim PTX: Finding dominators for '_Z15BlackScholesGPUPfS_S_S_S_ffi'...
GPGPU-Sim PTX: Finding immediate dominators for '_Z15BlackScholesGPUPfS_S_S_S_ffi'...
GPGPU-Sim PTX: Finding postdominators for '_Z15BlackScholesGPUPfS_S_S_S_ffi'...
GPGPU-Sim PTX: Finding immediate postdominators for '_Z15BlackScholesGPUPfS_S_S_S_ffi'...
GPGPU-Sim PTX: pre-decoding instructions for '_Z15BlackScholesGPUPfS_S_S_S_ffi'...
GPGPU-Sim PTX: reconvergence points for _Z15BlackScholesGPUPfS_S_S_S_ffi...
GPGPU-Sim PTX:  1 (potential) branch divergence @  PC=0x040 (_1.ptx:76) @%p1 bra $Lt_0_2818;
GPGPU-Sim PTX:    immediate post dominator      @  PC=0x3f8 (_1.ptx:200) exit;
GPGPU-Sim PTX:  2 (potential) branch divergence @  PC=0x3f0 (_1.ptx:197) @%p4 bra $Lt_0_3330;
GPGPU-Sim PTX:    immediate post dominator      @  PC=0x3f8 (_1.ptx:200) exit;
GPGPU-Sim PTX: ... end of reconvergence points for _Z15BlackScholesGPUPfS_S_S_S_ffi
GPGPU-Sim PTX: ... done pre-decoding instructions for '_Z15BlackScholesGPUPfS_S_S_S_ffi'.
GPGPU-Sim PTX: finished parsing EMBEDDED .ptx file _1.ptx
Adding _cuobjdump_1.ptx with cubin handle 1
GPGPU-Sim PTX: extracting embedded .ptx to temporary file "_ptx_UVuoak"
Running: cat _ptx_UVuoak | sed 's/.version 1.5/.version 1.4/' | sed 's/, texmode_independent//' | sed 's/\(\.extern \.const\[1\] .b8 \w\+\)\[\]/\1\[1\]/' | sed 's/const\[.\]/const\[0\]/g' > _ptx2_FNnySp
GPGPU-Sim PTX: generating ptxinfo using "$CUDA_INSTALL_PATH/bin/ptxas --gpu-name=sm_20 -v _ptx2_FNnySp --output-file  /dev/null 2> _ptx_UVuoakinfo"
GPGPU-Sim PTX: Kernel '_Z15BlackScholesGPUPfS_S_S_S_ffi' : regs=31, lmem=0, smem=0, cmem=128
GPGPU-Sim PTX: removing ptxinfo using "rm -f _ptx_UVuoak _ptx2_FNnySp _ptx_UVuoakinfo"
GPGPU-Sim PTX: loading globals with explicit initializers... 
GPGPU-Sim PTX: finished loading globals (0 bytes total).
GPGPU-Sim PTX: loading constants with explicit initializers...  done.
Initializing data...
...allocating CPU memory for options.
...allocating GPU memory for options.
...generating input data in CPU mem.
...copying input data to GPU mem.
Data init done.
Executing Black-Scholes GPU kernel (1 iterations)...
GPGPU-Sim: synchronize waiting for inactive GPU simulation
GPGPU-Sim API: Stream Manager State
GPGPU-Sim: detected inactive GPU simulation thread

GPGPU-Sim PTX: cudaLaunch for 0x0x405752 (mode=performance simulation) on stream 0
GPGPU-Sim PTX: pushing kernel '_Z15BlackScholesGPUPfS_S_S_S_ffi' to stream 0, gridDim= (480,1,1) blockDim = (128,1,1) 
kernel '_Z15BlackScholesGPUPfS_S_S_S_ffi' transfer to GPU hardware scheduler
GPGPU-Sim uArch: Shader 1 bind to kernel 1 '_Z15BlackScholesGPUPfS_S_S_S_ffi'
GPGPU-Sim uArch: CTA/core = 8, limited by: regs cta_limit
GPGPU-Sim uArch: core:  1, cta: 0 initialized @(1,0)
GPGPU-Sim uArch: Shader 2 bind to kernel 1 '_Z15BlackScholesGPUPfS_S_S_S_ffi'
GPGPU-Sim uArch: core:  2, cta: 0 initialized @(1,0)
GPGPU-Sim uArch: Shader 3 bind to kernel 1 '_Z15BlackScholesGPUPfS_S_S_S_ffi'
GPGPU-Sim uArch: core:  3, cta: 0 initialized @(1,0)
GPGPU-Sim uArch: Shader 4 bind to kernel 1 '_Z15BlackScholesGPUPfS_S_S_S_ffi'
GPGPU-Sim uArch: core:  4, cta: 0 initialized @(1,0)
GPGPU-Sim uArch: Shader 5 bind to kernel 1 '_Z15BlackScholesGPUPfS_S_S_S_ffi'
GPGPU-Sim uArch: core:  5, cta: 0 initialized @(1,0)
GPGPU-Sim uArch: Shader 6 bind to kernel 1 '_Z15BlackScholesGPUPfS_S_S_S_ffi'
GPGPU-Sim uArch: core:  6, cta: 0 initialized @(1,0)
GPGPU-Sim uArch: Shader 7 bind to kernel 1 '_Z15BlackScholesGPUPfS_S_S_S_ffi'
GPGPU-Sim uArch: core:  7, cta: 0 initialized @(1,0)
GPGPU-Sim uArch: Shader 8 bind to kernel 1 '_Z15BlackScholesGPUPfS_S_S_S_ffi'
GPGPU-Sim uArch: core:  8, cta: 0 initialized @(1,0)
GPGPU-Sim uArch: Shader 9 bind to kernel 1 '_Z15BlackScholesGPUPfS_S_S_S_ffi'
GPGPU-Sim uArch: core:  9, cta: 0 initialized @(1,0)
GPGPU-Sim uArch: Shader 10 bind to kernel 1 '_Z15BlackScholesGPUPfS_S_S_S_ffi'
GPGPU-Sim uArch: core: 10, cta: 0 initialized @(1,0)
GPGPU-Sim uArch: Shader 11 bind to kernel 1 '_Z15BlackScholesGPUPfS_S_S_S_ffi'
GPGPU-Sim uArch: core: 11, cta: 0 initialized @(1,0)
GPGPU-Sim uArch: Shader 12 bind to kernel 1 '_Z15BlackScholesGPUPfS_S_S_S_ffi'
GPGPU-Sim uArch: core: 12, cta: 0 initialized @(1,0)
GPGPU-Sim uArch: Shader 13 bind to kernel 1 '_Z15BlackScholesGPUPfS_S_S_S_ffi'
GPGPU-Sim uArch: core: 13, cta: 0 initialized @(1,0)
GPGPU-Sim uArch: Shader 14 bind to kernel 1 '_Z15BlackScholesGPUPfS_S_S_S_ffi'
GPGPU-Sim uArch: core: 14, cta: 0 initialized @(1,0)
GPGPU-Sim uArch: Shader 0 bind to kernel 1 '_Z15BlackScholesGPUPfS_S_S_S_ffi'
GPGPU-Sim uArch: core:  0, cta: 0 initialized @(1,0)
GPGPU-Sim uArch: core:  1, cta: 1 initialized @(2,0)
GPGPU-Sim uArch: core:  2, cta: 1 initialized @(2,0)
GPGPU-Sim uArch: core:  3, cta: 1 initialized @(2,0)
GPGPU-Sim uArch: core:  4, cta: 1 initialized @(2,0)
GPGPU-Sim uArch: core:  5, cta: 1 initialized @(2,0)
GPGPU-Sim uArch: core:  6, cta: 1 initialized @(2,0)
GPGPU-Sim uArch: core:  7, cta: 1 initialized @(2,0)
GPGPU-Sim uArch: core:  8, cta: 1 initialized @(2,0)
GPGPU-Sim uArch: core:  9, cta: 1 initialized @(2,0)
GPGPU-Sim uArch: core: 10, cta: 1 initialized @(2,0)
GPGPU-Sim uArch: core: 11, cta: 1 initialized @(2,0)
GPGPU-Sim uArch: core: 12, cta: 1 initialized @(2,0)
GPGPU-Sim uArch: core: 13, cta: 1 initialized @(2,0)
GPGPU-Sim uArch: core: 14, cta: 1 initialized @(2,0)
GPGPU-Sim uArch: core:  0, cta: 1 initialized @(2,0)
GPGPU-Sim uArch: core:  1, cta: 2 initialized @(3,0)
GPGPU-Sim uArch: core:  2, cta: 2 initialized @(3,0)
GPGPU-Sim uArch: core:  3, cta: 2 initialized @(3,0)
GPGPU-Sim uArch: core:  4, cta: 2 initialized @(3,0)
GPGPU-Sim uArch: core:  5, cta: 2 initialized @(3,0)
GPGPU-Sim uArch: core:  6, cta: 2 initialized @(3,0)
GPGPU-Sim uArch: core:  7, cta: 2 initialized @(3,0)
GPGPU-Sim uArch: core:  8, cta: 2 initialized @(3,0)
GPGPU-Sim uArch: core:  9, cta: 2 initialized @(3,0)
GPGPU-Sim uArch: core: 10, cta: 2 initialized @(3,0)
GPGPU-Sim uArch: core: 11, cta: 2 initialized @(3,0)
GPGPU-Sim uArch: core: 12, cta: 2 initialized @(3,0)
GPGPU-Sim uArch: core: 13, cta: 2 initialized @(3,0)
GPGPU-Sim uArch: core: 14, cta: 2 initialized @(3,0)
GPGPU-Sim uArch: core:  0, cta: 2 initialized @(3,0)
GPGPU-Sim uArch: core:  1, cta: 3 initialized @(4,0)
GPGPU-Sim uArch: core:  2, cta: 3 initialized @(4,0)
GPGPU-Sim uArch: core:  3, cta: 3 initialized @(4,0)
GPGPU-Sim uArch: core:  4, cta: 3 initialized @(4,0)
GPGPU-Sim uArch: core:  5, cta: 3 initialized @(4,0)
GPGPU-Sim uArch: core:  6, cta: 3 initialized @(4,0)
GPGPU-Sim uArch: core:  7, cta: 3 initialized @(4,0)
GPGPU-Sim uArch: core:  8, cta: 3 initialized @(4,0)
GPGPU-Sim uArch: core:  9, cta: 3 initialized @(4,0)
GPGPU-Sim uArch: core: 10, cta: 3 initialized @(4,0)
GPGPU-Sim uArch: core: 11, cta: 3 initialized @(4,0)
GPGPU-Sim uArch: core: 12, cta: 3 initialized @(4,0)
GPGPU-Sim uArch: core: 13, cta: 3 initialized @(4,0)
GPGPU-Sim uArch: core: 14, cta: 3 initialized @(4,0)
GPGPU-Sim uArch: core:  0, cta: 3 initialized @(4,0)
GPGPU-Sim uArch: core:  1, cta: 4 initialized @(5,0)
GPGPU-Sim uArch: core:  2, cta: 4 initialized @(5,0)
GPGPU-Sim uArch: core:  3, cta: 4 initialized @(5,0)
GPGPU-Sim uArch: core:  4, cta: 4 initialized @(5,0)
GPGPU-Sim uArch: core:  5, cta: 4 initialized @(5,0)
GPGPU-Sim uArch: core:  6, cta: 4 initialized @(5,0)
GPGPU-Sim uArch: core:  7, cta: 4 initialized @(5,0)
GPGPU-Sim uArch: core:  8, cta: 4 initialized @(5,0)
GPGPU-Sim uArch: core:  9, cta: 4 initialized @(5,0)
GPGPU-Sim uArch: core: 10, cta: 4 initialized @(5,0)
GPGPU-Sim uArch: core: 11, cta: 4 initialized @(5,0)
GPGPU-Sim uArch: core: 12, cta: 4 initialized @(5,0)
GPGPU-Sim uArch: core: 13, cta: 4 initialized @(5,0)
GPGPU-Sim uArch: core: 14, cta: 4 initialized @(5,0)
GPGPU-Sim uArch: core:  0, cta: 4 initialized @(5,0)
GPGPU-Sim uArch: core:  1, cta: 5 initialized @(6,0)
GPGPU-Sim uArch: core:  2, cta: 5 initialized @(6,0)
GPGPU-Sim uArch: core:  3, cta: 5 initialized @(6,0)
GPGPU-Sim uArch: core:  4, cta: 5 initialized @(6,0)
GPGPU-Sim uArch: core:  5, cta: 5 initialized @(6,0)
GPGPU-Sim uArch: core:  6, cta: 5 initialized @(6,0)
GPGPU-Sim uArch: core:  7, cta: 5 initialized @(6,0)
GPGPU-Sim uArch: core:  8, cta: 5 initialized @(6,0)
GPGPU-Sim uArch: core:  9, cta: 5 initialized @(6,0)
GPGPU-Sim uArch: core: 10, cta: 5 initialized @(6,0)
GPGPU-Sim uArch: core: 11, cta: 5 initialized @(6,0)
GPGPU-Sim uArch: core: 12, cta: 5 initialized @(6,0)
GPGPU-Sim uArch: core: 13, cta: 5 initialized @(6,0)
GPGPU-Sim uArch: core: 14, cta: 5 initialized @(6,0)
GPGPU-Sim uArch: core:  0, cta: 5 initialized @(6,0)
GPGPU-Sim uArch: core:  1, cta: 6 initialized @(7,0)
GPGPU-Sim uArch: core:  2, cta: 6 initialized @(7,0)
GPGPU-Sim uArch: core:  3, cta: 6 initialized @(7,0)
GPGPU-Sim uArch: core:  4, cta: 6 initialized @(7,0)
GPGPU-Sim uArch: core:  5, cta: 6 initialized @(7,0)
GPGPU-Sim uArch: core:  6, cta: 6 initialized @(7,0)
GPGPU-Sim uArch: core:  7, cta: 6 initialized @(7,0)
GPGPU-Sim uArch: core:  8, cta: 6 initialized @(7,0)
GPGPU-Sim uArch: core:  9, cta: 6 initialized @(7,0)
GPGPU-Sim uArch: core: 10, cta: 6 initialized @(7,0)
GPGPU-Sim uArch: core: 11, cta: 6 initialized @(7,0)
GPGPU-Sim uArch: core: 12, cta: 6 initialized @(7,0)
GPGPU-Sim uArch: core: 13, cta: 6 initialized @(7,0)
GPGPU-Sim uArch: core: 14, cta: 6 initialized @(7,0)
GPGPU-Sim uArch: core:  0, cta: 6 initialized @(7,0)
GPGPU-Sim uArch: core:  1, cta: 7 initialized @(8,0)
GPGPU-Sim uArch: core:  2, cta: 7 initialized @(8,0)
GPGPU-Sim uArch: core:  3, cta: 7 initialized @(8,0)
GPGPU-Sim uArch: core:  4, cta: 7 initialized @(8,0)
GPGPU-Sim uArch: core:  5, cta: 7 initialized @(8,0)
GPGPU-Sim uArch: core:  6, cta: 7 initialized @(8,0)
GPGPU-Sim uArch: core:  7, cta: 7 initialized @(8,0)
GPGPU-Sim uArch: core:  8, cta: 7 initialized @(8,0)
GPGPU-Sim uArch: core:  9, cta: 7 initialized @(8,0)
GPGPU-Sim uArch: core: 10, cta: 7 initialized @(8,0)
GPGPU-Sim uArch: core: 11, cta: 7 initialized @(8,0)
GPGPU-Sim uArch: core: 12, cta: 7 initialized @(8,0)
GPGPU-Sim uArch: core: 13, cta: 7 initialized @(8,0)
GPGPU-Sim uArch: core: 14, cta: 7 initialized @(8,0)
GPGPU-Sim uArch: core:  0, cta: 7 initialized @(8,0)
GPGPU-Sim PTX: 100000 instructions simulated : ctaid=(13,0,0) tid=(31,0,0)
GPGPU-Sim uArch: cycles simulated: 500  inst.: 92160 (ipc=184.3) sim_rate=23040 (inst/sec) elapsed = 0:0:00:04 / Sun Feb 28 21:39:20 2016
GPGPU-Sim PTX: 200000 instructions simulated : ctaid=(94,0,0) tid=(63,0,0)
GPGPU-Sim PTX: 300000 instructions simulated : ctaid=(97,0,0) tid=(127,0,0)
GPGPU-Sim PTX: 400000 instructions simulated : ctaid=(53,0,0) tid=(31,0,0)
GPGPU-Sim uArch: cycles simulated: 2000  inst.: 442656 (ipc=221.3) sim_rate=88531 (inst/sec) elapsed = 0:0:00:05 / Sun Feb 28 21:39:21 2016
GPGPU-Sim PTX: 500000 instructions simulated : ctaid=(64,0,0) tid=(31,0,0)
GPGPU-Sim PTX: 600000 instructions simulated : ctaid=(19,0,0) tid=(95,0,0)
GPGPU-Sim PTX: 700000 instructions simulated : ctaid=(90,0,0) tid=(127,0,0)
GPGPU-Sim uArch: cycles simulated: 3000  inst.: 736544 (ipc=245.5) sim_rate=122757 (inst/sec) elapsed = 0:0:00:06 / Sun Feb 28 21:39:22 2016
GPGPU-Sim PTX: 800000 instructions simulated : ctaid=(104,0,0) tid=(31,0,0)
GPGPU-Sim PTX: 900000 instructions simulated : ctaid=(11,0,0) tid=(63,0,0)
GPGPU-Sim PTX: 1000000 instructions simulated : ctaid=(9,0,0) tid=(31,0,0)
GPGPU-Sim PTX: 1100000 instructions simulated : ctaid=(76,0,0) tid=(95,0,0)
GPGPU-Sim PTX: 1200000 instructions simulated : ctaid=(82,0,0) tid=(63,0,0)
GPGPU-Sim PTX: 1300000 instructions simulated : ctaid=(70,0,0) tid=(63,0,0)
GPGPU-Sim uArch: cycles simulated: 4000  inst.: 1274272 (ipc=318.6) sim_rate=182038 (inst/sec) elapsed = 0:0:00:07 / Sun Feb 28 21:39:23 2016
GPGPU-Sim PTX: 1400000 instructions simulated : ctaid=(67,0,0) tid=(63,0,0)
GPGPU-Sim PTX: 1500000 instructions simulated : ctaid=(16,0,0) tid=(31,0,0)
GPGPU-Sim PTX: 1600000 instructions simulated : ctaid=(49,0,0) tid=(63,0,0)
GPGPU-Sim PTX: 1700000 instructions simulated : ctaid=(80,0,0) tid=(31,0,0)
GPGPU-Sim PTX: 1800000 instructions simulated : ctaid=(111,0,0) tid=(127,0,0)
GPGPU-Sim uArch: cycles simulated: 5000  inst.: 1817280 (ipc=363.5) sim_rate=227160 (inst/sec) elapsed = 0:0:00:08 / Sun Feb 28 21:39:24 2016
GPGPU-Sim PTX: 1900000 instructions simulated : ctaid=(2,0,0) tid=(95,0,0)
GPGPU-Sim PTX: 2000000 instructions simulated : ctaid=(19,0,0) tid=(31,0,0)
GPGPU-Sim uArch: cycles simulated: 6500  inst.: 2014880 (ipc=310.0) sim_rate=223875 (inst/sec) elapsed = 0:0:00:09 / Sun Feb 28 21:39:25 2016
GPGPU-Sim PTX: 2100000 instructions simulated : ctaid=(7,0,0) tid=(127,0,0)
GPGPU-Sim PTX: 2200000 instructions simulated : ctaid=(23,0,0) tid=(95,0,0)
GPGPU-Sim PTX: 2300000 instructions simulated : ctaid=(46,0,0) tid=(95,0,0)
GPGPU-Sim PTX: 2400000 instructions simulated : ctaid=(72,0,0) tid=(31,0,0)
GPGPU-Sim PTX: 2500000 instructions simulated : ctaid=(12,0,0) tid=(31,0,0)
GPGPU-Sim uArch: cycles simulated: 7500  inst.: 2497696 (ipc=333.0) sim_rate=249769 (inst/sec) elapsed = 0:0:00:10 / Sun Feb 28 21:39:26 2016
GPGPU-Sim PTX: 2600000 instructions simulated : ctaid=(7,0,0) tid=(31,0,0)
GPGPU-Sim PTX: 2700000 instructions simulated : ctaid=(103,0,0) tid=(31,0,0)
GPGPU-Sim PTX: 2800000 instructions simulated : ctaid=(29,0,0) tid=(63,0,0)
GPGPU-Sim PTX: 2900000 instructions simulated : ctaid=(43,0,0) tid=(127,0,0)
GPGPU-Sim uArch: cycles simulated: 8500  inst.: 2892128 (ipc=340.3) sim_rate=262920 (inst/sec) elapsed = 0:0:00:11 / Sun Feb 28 21:39:27 2016
GPGPU-Sim PTX: 3000000 instructions simulated : ctaid=(58,0,0) tid=(127,0,0)
GPGPU-Sim PTX: 3100000 instructions simulated : ctaid=(9,0,0) tid=(95,0,0)
GPGPU-Sim PTX: 3200000 instructions simulated : ctaid=(49,0,0) tid=(95,0,0)
GPGPU-Sim PTX: 3300000 instructions simulated : ctaid=(23,0,0) tid=(95,0,0)
GPGPU-Sim uArch: cycles simulated: 10000  inst.: 3318784 (ipc=331.9) sim_rate=276565 (inst/sec) elapsed = 0:0:00:12 / Sun Feb 28 21:39:28 2016
GPGPU-Sim PTX: 3400000 instructions simulated : ctaid=(28,0,0) tid=(63,0,0)
GPGPU-Sim PTX: 3500000 instructions simulated : ctaid=(74,0,0) tid=(95,0,0)
GPGPU-Sim PTX: 3600000 instructions simulated : ctaid=(21,0,0) tid=(95,0,0)
GPGPU-Sim uArch: cycles simulated: 11000  inst.: 3607840 (ipc=328.0) sim_rate=277526 (inst/sec) elapsed = 0:0:00:13 / Sun Feb 28 21:39:29 2016
GPGPU-Sim PTX: 3700000 instructions simulated : ctaid=(28,0,0) tid=(95,0,0)
GPGPU-Sim PTX: 3800000 instructions simulated : ctaid=(47,0,0) tid=(127,0,0)
GPGPU-Sim PTX: 3900000 instructions simulated : ctaid=(14,0,0) tid=(127,0,0)
GPGPU-Sim PTX: 4000000 instructions simulated : ctaid=(57,0,0) tid=(127,0,0)
GPGPU-Sim uArch: cycles simulated: 12000  inst.: 3970848 (ipc=330.9) sim_rate=283632 (inst/sec) elapsed = 0:0:00:14 / Sun Feb 28 21:39:30 2016
GPGPU-Sim PTX: 4100000 instructions simulated : ctaid=(43,0,0) tid=(127,0,0)
GPGPU-Sim PTX: 4200000 instructions simulated : ctaid=(28,0,0) tid=(31,0,0)
GPGPU-Sim PTX: 4300000 instructions simulated : ctaid=(36,0,0) tid=(63,0,0)
GPGPU-Sim PTX: 4400000 instructions simulated : ctaid=(17,0,0) tid=(31,0,0)
GPGPU-Sim uArch: cycles simulated: 13500  inst.: 4451072 (ipc=329.7) sim_rate=296738 (inst/sec) elapsed = 0:0:00:15 / Sun Feb 28 21:39:31 2016
GPGPU-Sim PTX: 4500000 instructions simulated : ctaid=(56,0,0) tid=(31,0,0)
GPGPU-Sim PTX: 4600000 instructions simulated : ctaid=(32,0,0) tid=(95,0,0)
GPGPU-Sim PTX: 4700000 instructions simulated : ctaid=(27,0,0) tid=(127,0,0)
GPGPU-Sim PTX: 4800000 instructions simulated : ctaid=(40,0,0) tid=(31,0,0)
GPGPU-Sim uArch: cycles simulated: 14500  inst.: 4805120 (ipc=331.4) sim_rate=300320 (inst/sec) elapsed = 0:0:00:16 / Sun Feb 28 21:39:32 2016
GPGPU-Sim PTX: 4900000 instructions simulated : ctaid=(116,0,0) tid=(31,0,0)
GPGPU-Sim PTX: 5000000 instructions simulated : ctaid=(62,0,0) tid=(31,0,0)
GPGPU-Sim PTX: 5100000 instructions simulated : ctaid=(7,0,0) tid=(63,0,0)
GPGPU-Sim uArch: cycles simulated: 15500  inst.: 5141024 (ipc=331.7) sim_rate=302413 (inst/sec) elapsed = 0:0:00:17 / Sun Feb 28 21:39:33 2016
GPGPU-Sim PTX: 5200000 instructions simulated : ctaid=(19,0,0) tid=(127,0,0)
GPGPU-Sim PTX: 5300000 instructions simulated : ctaid=(46,0,0) tid=(95,0,0)
GPGPU-Sim PTX: 5400000 instructions simulated : ctaid=(92,0,0) tid=(31,0,0)
GPGPU-Sim PTX: 5500000 instructions simulated : ctaid=(49,0,0) tid=(95,0,0)
GPGPU-Sim PTX: 5600000 instructions simulated : ctaid=(37,0,0) tid=(63,0,0)
GPGPU-Sim PTX: 5700000 instructions simulated : ctaid=(34,0,0) tid=(127,0,0)
GPGPU-Sim uArch: cycles simulated: 17000  inst.: 5669344 (ipc=333.5) sim_rate=314963 (inst/sec) elapsed = 0:0:00:18 / Sun Feb 28 21:39:34 2016
GPGPU-Sim PTX: 5800000 instructions simulated : ctaid=(6,0,0) tid=(31,0,0)
GPGPU-Sim PTX: 5900000 instructions simulated : ctaid=(82,0,0) tid=(95,0,0)
GPGPU-Sim PTX: 6000000 instructions simulated : ctaid=(41,0,0) tid=(63,0,0)
GPGPU-Sim uArch: cycles simulated: 18000  inst.: 6003872 (ipc=333.5) sim_rate=315993 (inst/sec) elapsed = 0:0:00:19 / Sun Feb 28 21:39:35 2016
GPGPU-Sim PTX: 6100000 instructions simulated : ctaid=(50,0,0) tid=(31,0,0)
GPGPU-Sim PTX: 6200000 instructions simulated : ctaid=(57,0,0) tid=(95,0,0)
GPGPU-Sim PTX: 6300000 instructions simulated : ctaid=(42,0,0) tid=(31,0,0)
GPGPU-Sim uArch: cycles simulated: 19000  inst.: 6341952 (ipc=333.8) sim_rate=317097 (inst/sec) elapsed = 0:0:00:20 / Sun Feb 28 21:39:36 2016
GPGPU-Sim PTX: 6400000 instructions simulated : ctaid=(49,0,0) tid=(95,0,0)
GPGPU-Sim PTX: 6500000 instructions simulated : ctaid=(31,0,0) tid=(31,0,0)
GPGPU-Sim PTX: 6600000 instructions simulated : ctaid=(12,0,0) tid=(63,0,0)
GPGPU-Sim PTX: 6700000 instructions simulated : ctaid=(20,0,0) tid=(63,0,0)
GPGPU-Sim PTX: 6800000 instructions simulated : ctaid=(39,0,0) tid=(95,0,0)
GPGPU-Sim uArch: cycles simulated: 20500  inst.: 6857984 (ipc=334.5) sim_rate=326570 (inst/sec) elapsed = 0:0:00:21 / Sun Feb 28 21:39:37 2016
GPGPU-Sim PTX: 6900000 instructions simulated : ctaid=(15,0,0) tid=(95,0,0)
GPGPU-Sim PTX: 7000000 instructions simulated : ctaid=(11,0,0) tid=(127,0,0)
GPGPU-Sim PTX: 7100000 instructions simulated : ctaid=(23,0,0) tid=(95,0,0)
GPGPU-Sim PTX: 7200000 instructions simulated : ctaid=(12,0,0) tid=(95,0,0)
GPGPU-Sim uArch: cycles simulated: 21500  inst.: 7225600 (ipc=336.1) sim_rate=328436 (inst/sec) elapsed = 0:0:00:22 / Sun Feb 28 21:39:38 2016
GPGPU-Sim PTX: 7300000 instructions simulated : ctaid=(52,0,0) tid=(95,0,0)
GPGPU-Sim PTX: 7400000 instructions simulated : ctaid=(11,0,0) tid=(95,0,0)
GPGPU-Sim PTX: 7500000 instructions simulated : ctaid=(33,0,0) tid=(127,0,0)
GPGPU-Sim PTX: 7600000 instructions simulated : ctaid=(22,0,0) tid=(95,0,0)
GPGPU-Sim uArch: cycles simulated: 22500  inst.: 7592672 (ipc=337.5) sim_rate=330116 (inst/sec) elapsed = 0:0:00:23 / Sun Feb 28 21:39:39 2016
GPGPU-Sim PTX: 7700000 instructions simulated : ctaid=(20,0,0) tid=(63,0,0)
GPGPU-Sim PTX: 7800000 instructions simulated : ctaid=(17,0,0) tid=(63,0,0)
GPGPU-Sim PTX: 7900000 instructions simulated : ctaid=(55,0,0) tid=(63,0,0)
GPGPU-Sim PTX: 8000000 instructions simulated : ctaid=(37,0,0) tid=(95,0,0)
GPGPU-Sim PTX: 8100000 instructions simulated : ctaid=(19,0,0) tid=(95,0,0)
GPGPU-Sim uArch: cycles simulated: 24000  inst.: 8081216 (ipc=336.7) sim_rate=336717 (inst/sec) elapsed = 0:0:00:24 / Sun Feb 28 21:39:40 2016
GPGPU-Sim PTX: 8200000 instructions simulated : ctaid=(55,0,0) tid=(95,0,0)
GPGPU-Sim PTX: 8300000 instructions simulated : ctaid=(10,0,0) tid=(63,0,0)
GPGPU-Sim PTX: 8400000 instructions simulated : ctaid=(9,0,0) tid=(63,0,0)
GPGPU-Sim uArch: cycles simulated: 25000  inst.: 8452896 (ipc=338.1) sim_rate=338115 (inst/sec) elapsed = 0:0:00:25 / Sun Feb 28 21:39:41 2016
GPGPU-Sim PTX: 8500000 instructions simulated : ctaid=(19,0,0) tid=(31,0,0)
GPGPU-Sim PTX: 8600000 instructions simulated : ctaid=(29,0,0) tid=(95,0,0)
GPGPU-Sim PTX: 8700000 instructions simulated : ctaid=(13,0,0) tid=(63,0,0)
GPGPU-Sim PTX: 8800000 instructions simulated : ctaid=(20,0,0) tid=(95,0,0)
GPGPU-Sim uArch: cycles simulated: 26000  inst.: 8790208 (ipc=338.1) sim_rate=338084 (inst/sec) elapsed = 0:0:00:26 / Sun Feb 28 21:39:42 2016
GPGPU-Sim PTX: 8900000 instructions simulated : ctaid=(17,0,0) tid=(31,0,0)
GPGPU-Sim PTX: 9000000 instructions simulated : ctaid=(15,0,0) tid=(127,0,0)
GPGPU-Sim PTX: 9100000 instructions simulated : ctaid=(4,0,0) tid=(95,0,0)
GPGPU-Sim uArch: cycles simulated: 27000  inst.: 9100736 (ipc=337.1) sim_rate=337064 (inst/sec) elapsed = 0:0:00:27 / Sun Feb 28 21:39:43 2016
GPGPU-Sim PTX: 9200000 instructions simulated : ctaid=(28,0,0) tid=(31,0,0)
GPGPU-Sim PTX: 9300000 instructions simulated : ctaid=(10,0,0) tid=(63,0,0)
GPGPU-Sim PTX: 9400000 instructions simulated : ctaid=(8,0,0) tid=(95,0,0)
GPGPU-Sim PTX: 9500000 instructions simulated : ctaid=(54,0,0) tid=(31,0,0)
GPGPU-Sim PTX: 9600000 instructions simulated : ctaid=(82,0,0) tid=(95,0,0)
GPGPU-Sim uArch: cycles simulated: 28500  inst.: 9627520 (ipc=337.8) sim_rate=343840 (inst/sec) elapsed = 0:0:00:28 / Sun Feb 28 21:39:44 2016
GPGPU-Sim PTX: 9700000 instructions simulated : ctaid=(1,0,0) tid=(127,0,0)
GPGPU-Sim PTX: 9800000 instructions simulated : ctaid=(4,0,0) tid=(95,0,0)
GPGPU-Sim PTX: 9900000 instructions simulated : ctaid=(30,0,0) tid=(95,0,0)
GPGPU-Sim PTX: 10000000 instructions simulated : ctaid=(9,0,0) tid=(127,0,0)
GPGPU-Sim uArch: cycles simulated: 29500  inst.: 9990208 (ipc=338.7) sim_rate=344489 (inst/sec) elapsed = 0:0:00:29 / Sun Feb 28 21:39:45 2016
GPGPU-Sim PTX: 10100000 instructions simulated : ctaid=(18,0,0) tid=(95,0,0)
GPGPU-Sim PTX: 10200000 instructions simulated : ctaid=(39,0,0) tid=(31,0,0)
GPGPU-Sim PTX: 10300000 instructions simulated : ctaid=(98,0,0) tid=(31,0,0)
GPGPU-Sim uArch: cycles simulated: 30500  inst.: 10345024 (ipc=339.2) sim_rate=344834 (inst/sec) elapsed = 0:0:00:30 / Sun Feb 28 21:39:46 2016
GPGPU-Sim PTX: 10400000 instructions simulated : ctaid=(57,0,0) tid=(31,0,0)
GPGPU-Sim PTX: 10500000 instructions simulated : ctaid=(89,0,0) tid=(95,0,0)
GPGPU-Sim PTX: 10600000 instructions simulated : ctaid=(3,0,0) tid=(95,0,0)
GPGPU-Sim PTX: 10700000 instructions simulated : ctaid=(14,0,0) tid=(127,0,0)
GPGPU-Sim uArch: cycles simulated: 31500  inst.: 10700832 (ipc=339.7) sim_rate=345188 (inst/sec) elapsed = 0:0:00:31 / Sun Feb 28 21:39:47 2016
GPGPU-Sim PTX: 10800000 instructions simulated : ctaid=(7,0,0) tid=(127,0,0)
GPGPU-Sim PTX: 10900000 instructions simulated : ctaid=(18,0,0) tid=(95,0,0)
GPGPU-Sim PTX: 11000000 instructions simulated : ctaid=(22,0,0) tid=(63,0,0)
GPGPU-Sim PTX: 11100000 instructions simulated : ctaid=(36,0,0) tid=(95,0,0)
GPGPU-Sim PTX: 11200000 instructions simulated : ctaid=(73,0,0) tid=(95,0,0)
GPGPU-Sim uArch: cycles simulated: 33000  inst.: 11227840 (ipc=340.2) sim_rate=350870 (inst/sec) elapsed = 0:0:00:32 / Sun Feb 28 21:39:48 2016
GPGPU-Sim PTX: 11300000 instructions simulated : ctaid=(15,0,0) tid=(63,0,0)
GPGPU-Sim PTX: 11400000 instructions simulated : ctaid=(59,0,0) tid=(95,0,0)
GPGPU-Sim PTX: 11500000 instructions simulated : ctaid=(19,0,0) tid=(127,0,0)
GPGPU-Sim uArch: cycles simulated: 34000  inst.: 11566720 (ipc=340.2) sim_rate=350506 (inst/sec) elapsed = 0:0:00:33 / Sun Feb 28 21:39:49 2016
GPGPU-Sim PTX: 11600000 instructions simulated : ctaid=(25,0,0) tid=(127,0,0)
GPGPU-Sim PTX: 11700000 instructions simulated : ctaid=(82,0,0) tid=(31,0,0)
GPGPU-Sim PTX: 11800000 instructions simulated : ctaid=(94,0,0) tid=(31,0,0)
GPGPU-Sim PTX: 11900000 instructions simulated : ctaid=(26,0,0) tid=(95,0,0)
GPGPU-Sim uArch: cycles simulated: 35000  inst.: 11894624 (ipc=339.8) sim_rate=349841 (inst/sec) elapsed = 0:0:00:34 / Sun Feb 28 21:39:50 2016
GPGPU-Sim PTX: 12000000 instructions simulated : ctaid=(19,0,0) tid=(95,0,0)
GPGPU-Sim PTX: 12100000 instructions simulated : ctaid=(48,0,0) tid=(31,0,0)
GPGPU-Sim PTX: 12200000 instructions simulated : ctaid=(54,0,0) tid=(31,0,0)
GPGPU-Sim PTX: 12300000 instructions simulated : ctaid=(8,0,0) tid=(63,0,0)
GPGPU-Sim PTX: 12400000 instructions simulated : ctaid=(28,0,0) tid=(127,0,0)
GPGPU-Sim uArch: cycles simulated: 36500  inst.: 12441952 (ipc=340.9) sim_rate=355484 (inst/sec) elapsed = 0:0:00:35 / Sun Feb 28 21:39:51 2016
GPGPU-Sim PTX: 12500000 instructions simulated : ctaid=(28,0,0) tid=(63,0,0)
GPGPU-Sim PTX: 12600000 instructions simulated : ctaid=(51,0,0) tid=(95,0,0)
GPGPU-Sim PTX: 12700000 instructions simulated : ctaid=(53,0,0) tid=(127,0,0)
GPGPU-Sim PTX: 12800000 instructions simulated : ctaid=(36,0,0) tid=(95,0,0)
GPGPU-Sim uArch: cycles simulated: 37500  inst.: 12777088 (ipc=340.7) sim_rate=354919 (inst/sec) elapsed = 0:0:00:36 / Sun Feb 28 21:39:52 2016
GPGPU-Sim PTX: 12900000 instructions simulated : ctaid=(35,0,0) tid=(63,0,0)
GPGPU-Sim PTX: 13000000 instructions simulated : ctaid=(12,0,0) tid=(127,0,0)
GPGPU-Sim PTX: 13100000 instructions simulated : ctaid=(28,0,0) tid=(31,0,0)
GPGPU-Sim uArch: cycles simulated: 38500  inst.: 13119040 (ipc=340.8) sim_rate=354568 (inst/sec) elapsed = 0:0:00:37 / Sun Feb 28 21:39:53 2016
GPGPU-Sim PTX: 13200000 instructions simulated : ctaid=(18,0,0) tid=(95,0,0)
GPGPU-Sim PTX: 13300000 instructions simulated : ctaid=(57,0,0) tid=(31,0,0)
GPGPU-Sim PTX: 13400000 instructions simulated : ctaid=(71,0,0) tid=(95,0,0)
GPGPU-Sim PTX: 13500000 instructions simulated : ctaid=(46,0,0) tid=(95,0,0)
GPGPU-Sim PTX: 13600000 instructions simulated : ctaid=(45,0,0) tid=(95,0,0)
GPGPU-Sim uArch: cycles simulated: 40000  inst.: 13651232 (ipc=341.3) sim_rate=359242 (inst/sec) elapsed = 0:0:00:38 / Sun Feb 28 21:39:54 2016
GPGPU-Sim PTX: 13700000 instructions simulated : ctaid=(38,0,0) tid=(95,0,0)
GPGPU-Sim PTX: 13800000 instructions simulated : ctaid=(1,0,0) tid=(127,0,0)
GPGPU-Sim PTX: 13900000 instructions simulated : ctaid=(17,0,0) tid=(95,0,0)
GPGPU-Sim PTX: 14000000 instructions simulated : ctaid=(15,0,0) tid=(95,0,0)
GPGPU-Sim uArch: cycles simulated: 41000  inst.: 13999168 (ipc=341.4) sim_rate=358953 (inst/sec) elapsed = 0:0:00:39 / Sun Feb 28 21:39:55 2016
GPGPU-Sim PTX: 14100000 instructions simulated : ctaid=(8,0,0) tid=(63,0,0)
GPGPU-Sim PTX: 14200000 instructions simulated : ctaid=(31,0,0) tid=(63,0,0)
GPGPU-Sim PTX: 14300000 instructions simulated : ctaid=(48,0,0) tid=(127,0,0)
GPGPU-Sim uArch: cycles simulated: 42000  inst.: 14338432 (ipc=341.4) sim_rate=358460 (inst/sec) elapsed = 0:0:00:40 / Sun Feb 28 21:39:56 2016
GPGPU-Sim PTX: 14400000 instructions simulated : ctaid=(11,0,0) tid=(127,0,0)
GPGPU-Sim PTX: 14500000 instructions simulated : ctaid=(43,0,0) tid=(95,0,0)
GPGPU-Sim PTX: 14600000 instructions simulated : ctaid=(69,0,0) tid=(127,0,0)
GPGPU-Sim PTX: 14700000 instructions simulated : ctaid=(15,0,0) tid=(31,0,0)
GPGPU-Sim uArch: cycles simulated: 43000  inst.: 14704928 (ipc=342.0) sim_rate=358656 (inst/sec) elapsed = 0:0:00:41 / Sun Feb 28 21:39:57 2016
GPGPU-Sim PTX: 14800000 instructions simulated : ctaid=(30,0,0) tid=(63,0,0)
GPGPU-Sim PTX: 14900000 instructions simulated : ctaid=(83,0,0) tid=(95,0,0)
GPGPU-Sim PTX: 15000000 instructions simulated : ctaid=(15,0,0) tid=(127,0,0)
GPGPU-Sim PTX: 15100000 instructions simulated : ctaid=(61,0,0) tid=(95,0,0)
GPGPU-Sim PTX: 15200000 instructions simulated : ctaid=(6,0,0) tid=(95,0,0)
GPGPU-Sim uArch: cycles simulated: 44500  inst.: 15214016 (ipc=341.9) sim_rate=362238 (inst/sec) elapsed = 0:0:00:42 / Sun Feb 28 21:39:58 2016
GPGPU-Sim PTX: 15300000 instructions simulated : ctaid=(52,0,0) tid=(63,0,0)
GPGPU-Sim PTX: 15400000 instructions simulated : ctaid=(41,0,0) tid=(63,0,0)
GPGPU-Sim PTX: 15500000 instructions simulated : ctaid=(15,0,0) tid=(31,0,0)
GPGPU-Sim uArch: cycles simulated: 45500  inst.: 15553664 (ipc=341.8) sim_rate=361713 (inst/sec) elapsed = 0:0:00:43 / Sun Feb 28 21:39:59 2016
GPGPU-Sim PTX: 15600000 instructions simulated : ctaid=(43,0,0) tid=(95,0,0)
GPGPU-Sim PTX: 15700000 instructions simulated : ctaid=(21,0,0) tid=(95,0,0)
GPGPU-Sim PTX: 15800000 instructions simulated : ctaid=(37,0,0) tid=(95,0,0)
GPGPU-Sim PTX: 15900000 instructions simulated : ctaid=(26,0,0) tid=(127,0,0)
GPGPU-Sim uArch: cycles simulated: 46500  inst.: 15888000 (ipc=341.7) sim_rate=361090 (inst/sec) elapsed = 0:0:00:44 / Sun Feb 28 21:40:00 2016
GPGPU-Sim PTX: 16000000 instructions simulated : ctaid=(1,0,0) tid=(95,0,0)
GPGPU-Sim PTX: 16100000 instructions simulated : ctaid=(34,0,0) tid=(63,0,0)
GPGPU-Sim PTX: 16200000 instructions simulated : ctaid=(12,0,0) tid=(95,0,0)
GPGPU-Sim uArch: cycles simulated: 47500  inst.: 16262464 (ipc=342.4) sim_rate=361388 (inst/sec) elapsed = 0:0:00:45 / Sun Feb 28 21:40:01 2016
GPGPU-Sim PTX: 16300000 instructions simulated : ctaid=(5,0,0) tid=(31,0,0)
GPGPU-Sim PTX: 16400000 instructions simulated : ctaid=(51,0,0) tid=(63,0,0)
GPGPU-Sim PTX: 16500000 instructions simulated : ctaid=(28,0,0) tid=(127,0,0)
GPGPU-Sim PTX: 16600000 instructions simulated : ctaid=(44,0,0) tid=(127,0,0)
GPGPU-Sim PTX: 16700000 instructions simulated : ctaid=(28,0,0) tid=(95,0,0)
GPGPU-Sim PTX: 16800000 instructions simulated : ctaid=(31,0,0) tid=(63,0,0)
GPGPU-Sim uArch: cycles simulated: 49000  inst.: 16773824 (ipc=342.3) sim_rate=364648 (inst/sec) elapsed = 0:0:00:46 / Sun Feb 28 21:40:02 2016
GPGPU-Sim PTX: 16900000 instructions simulated : ctaid=(7,0,0) tid=(95,0,0)
GPGPU-Sim PTX: 17000000 instructions simulated : ctaid=(79,0,0) tid=(31,0,0)
GPGPU-Sim PTX: 17100000 instructions simulated : ctaid=(12,0,0) tid=(63,0,0)
GPGPU-Sim uArch: cycles simulated: 50000  inst.: 17118048 (ipc=342.4) sim_rate=364213 (inst/sec) elapsed = 0:0:00:47 / Sun Feb 28 21:40:03 2016
GPGPU-Sim PTX: 17200000 instructions simulated : ctaid=(57,0,0) tid=(95,0,0)
GPGPU-Sim PTX: 17300000 instructions simulated : ctaid=(4,0,0) tid=(127,0,0)
GPGPU-Sim PTX: 17400000 instructions simulated : ctaid=(21,0,0) tid=(31,0,0)
GPGPU-Sim uArch: cycles simulated: 51000  inst.: 17434848 (ipc=341.9) sim_rate=363226 (inst/sec) elapsed = 0:0:00:48 / Sun Feb 28 21:40:04 2016
GPGPU-Sim PTX: 17500000 instructions simulated : ctaid=(55,0,0) tid=(95,0,0)
GPGPU-Sim PTX: 17600000 instructions simulated : ctaid=(75,0,0) tid=(31,0,0)
GPGPU-Sim PTX: 17700000 instructions simulated : ctaid=(55,0,0) tid=(31,0,0)
GPGPU-Sim PTX: 17800000 instructions simulated : ctaid=(85,0,0) tid=(31,0,0)
GPGPU-Sim PTX: 17900000 instructions simulated : ctaid=(2,0,0) tid=(31,0,0)
GPGPU-Sim PTX: 18000000 instructions simulated : ctaid=(64,0,0) tid=(31,0,0)
GPGPU-Sim uArch: cycles simulated: 52500  inst.: 17979616 (ipc=342.5) sim_rate=366930 (inst/sec) elapsed = 0:0:00:49 / Sun Feb 28 21:40:05 2016
GPGPU-Sim PTX: 18100000 instructions simulated : ctaid=(5,0,0) tid=(31,0,0)
GPGPU-Sim PTX: 18200000 instructions simulated : ctaid=(55,0,0) tid=(127,0,0)
GPGPU-Sim PTX: 18300000 instructions simulated : ctaid=(2,0,0) tid=(127,0,0)
GPGPU-Sim uArch: cycles simulated: 53500  inst.: 18342272 (ipc=342.8) sim_rate=366845 (inst/sec) elapsed = 0:0:00:50 / Sun Feb 28 21:40:06 2016
GPGPU-Sim PTX: 18400000 instructions simulated : ctaid=(36,0,0) tid=(127,0,0)
GPGPU-Sim PTX: 18500000 instructions simulated : ctaid=(45,0,0) tid=(127,0,0)
GPGPU-Sim PTX: 18600000 instructions simulated : ctaid=(97,0,0) tid=(31,0,0)
GPGPU-Sim PTX: 18700000 instructions simulated : ctaid=(32,0,0) tid=(127,0,0)
GPGPU-Sim uArch: cycles simulated: 54500  inst.: 18696320 (ipc=343.1) sim_rate=366594 (inst/sec) elapsed = 0:0:00:51 / Sun Feb 28 21:40:07 2016
GPGPU-Sim PTX: 18800000 instructions simulated : ctaid=(65,0,0) tid=(31,0,0)
GPGPU-Sim PTX: 18900000 instructions simulated : ctaid=(14,0,0) tid=(127,0,0)
GPGPU-Sim PTX: 19000000 instructions simulated : ctaid=(11,0,0) tid=(31,0,0)
GPGPU-Sim uArch: cycles simulated: 55500  inst.: 19035136 (ipc=343.0) sim_rate=366060 (inst/sec) elapsed = 0:0:00:52 / Sun Feb 28 21:40:08 2016
GPGPU-Sim PTX: 19100000 instructions simulated : ctaid=(3,0,0) tid=(63,0,0)
GPGPU-Sim PTX: 19200000 instructions simulated : ctaid=(47,0,0) tid=(95,0,0)
GPGPU-Sim PTX: 19300000 instructions simulated : ctaid=(37,0,0) tid=(95,0,0)
GPGPU-Sim PTX: 19400000 instructions simulated : ctaid=(1,0,0) tid=(95,0,0)
GPGPU-Sim PTX: 19500000 instructions simulated : ctaid=(43,0,0) tid=(127,0,0)
GPGPU-Sim uArch: cycles simulated: 57000  inst.: 19536672 (ipc=342.7) sim_rate=368616 (inst/sec) elapsed = 0:0:00:53 / Sun Feb 28 21:40:09 2016
GPGPU-Sim PTX: 19600000 instructions simulated : ctaid=(16,0,0) tid=(127,0,0)
GPGPU-Sim PTX: 19700000 instructions simulated : ctaid=(8,0,0) tid=(31,0,0)
GPGPU-Sim PTX: 19800000 instructions simulated : ctaid=(0,0,0) tid=(95,0,0)
GPGPU-Sim PTX: 19900000 instructions simulated : ctaid=(41,0,0) tid=(63,0,0)
GPGPU-Sim uArch: cycles simulated: 58000  inst.: 19905440 (ipc=343.2) sim_rate=368619 (inst/sec) elapsed = 0:0:00:54 / Sun Feb 28 21:40:10 2016
GPGPU-Sim PTX: 20000000 instructions simulated : ctaid=(40,0,0) tid=(127,0,0)
GPGPU-Sim PTX: 20100000 instructions simulated : ctaid=(46,0,0) tid=(95,0,0)
GPGPU-Sim PTX: 20200000 instructions simulated : ctaid=(56,0,0) tid=(63,0,0)
GPGPU-Sim PTX: 20300000 instructions simulated : ctaid=(58,0,0) tid=(31,0,0)
GPGPU-Sim uArch: cycles simulated: 59000  inst.: 20269792 (ipc=343.6) sim_rate=368541 (inst/sec) elapsed = 0:0:00:55 / Sun Feb 28 21:40:11 2016
GPGPU-Sim PTX: 20400000 instructions simulated : ctaid=(14,0,0) tid=(63,0,0)
GPGPU-Sim PTX: 20500000 instructions simulated : ctaid=(13,0,0) tid=(95,0,0)
GPGPU-Sim PTX: 20600000 instructions simulated : ctaid=(53,0,0) tid=(95,0,0)
GPGPU-Sim PTX: 20700000 instructions simulated : ctaid=(29,0,0) tid=(127,0,0)
GPGPU-Sim PTX: 20800000 instructions simulated : ctaid=(53,0,0) tid=(95,0,0)
GPGPU-Sim uArch: cycles simulated: 60500  inst.: 20782624 (ipc=343.5) sim_rate=371118 (inst/sec) elapsed = 0:0:00:56 / Sun Feb 28 21:40:12 2016
GPGPU-Sim PTX: 20900000 instructions simulated : ctaid=(1,0,0) tid=(127,0,0)
GPGPU-Sim PTX: 21000000 instructions simulated : ctaid=(55,0,0) tid=(95,0,0)
GPGPU-Sim PTX: 21100000 instructions simulated : ctaid=(50,0,0) tid=(127,0,0)
GPGPU-Sim uArch: cycles simulated: 61500  inst.: 21154368 (ipc=344.0) sim_rate=371129 (inst/sec) elapsed = 0:0:00:57 / Sun Feb 28 21:40:13 2016
GPGPU-Sim PTX: 21200000 instructions simulated : ctaid=(33,0,0) tid=(63,0,0)
GPGPU-Sim PTX: 21300000 instructions simulated : ctaid=(1,0,0) tid=(63,0,0)
GPGPU-Sim PTX: 21400000 instructions simulated : ctaid=(61,0,0) tid=(95,0,0)
GPGPU-Sim PTX: 21500000 instructions simulated : ctaid=(58,0,0) tid=(31,0,0)
GPGPU-Sim uArch: cycles simulated: 62500  inst.: 21507904 (ipc=344.1) sim_rate=370825 (inst/sec) elapsed = 0:0:00:58 / Sun Feb 28 21:40:14 2016
GPGPU-Sim PTX: 21600000 instructions simulated : ctaid=(49,0,0) tid=(95,0,0)
GPGPU-Sim PTX: 21700000 instructions simulated : ctaid=(17,0,0) tid=(95,0,0)
GPGPU-Sim PTX: 21800000 instructions simulated : ctaid=(46,0,0) tid=(127,0,0)
GPGPU-Sim uArch: cycles simulated: 63500  inst.: 21838240 (ipc=343.9) sim_rate=370139 (inst/sec) elapsed = 0:0:00:59 / Sun Feb 28 21:40:15 2016
GPGPU-Sim PTX: 21900000 instructions simulated : ctaid=(87,0,0) tid=(95,0,0)
GPGPU-Sim PTX: 22000000 instructions simulated : ctaid=(34,0,0) tid=(127,0,0)
GPGPU-Sim PTX: 22100000 instructions simulated : ctaid=(40,0,0) tid=(31,0,0)
GPGPU-Sim PTX: 22200000 instructions simulated : ctaid=(33,0,0) tid=(95,0,0)
GPGPU-Sim PTX: 22300000 instructions simulated : ctaid=(36,0,0) tid=(63,0,0)
GPGPU-Sim uArch: cycles simulated: 65000  inst.: 22353120 (ipc=343.9) sim_rate=372552 (inst/sec) elapsed = 0:0:01:00 / Sun Feb 28 21:40:16 2016
GPGPU-Sim PTX: 22400000 instructions simulated : ctaid=(35,0,0) tid=(63,0,0)
GPGPU-Sim PTX: 22500000 instructions simulated : ctaid=(33,0,0) tid=(31,0,0)
GPGPU-Sim PTX: 22600000 instructions simulated : ctaid=(44,0,0) tid=(31,0,0)
GPGPU-Sim PTX: 22700000 instructions simulated : ctaid=(5,0,0) tid=(31,0,0)
GPGPU-Sim uArch: cycles simulated: 66000  inst.: 22710336 (ipc=344.1) sim_rate=372300 (inst/sec) elapsed = 0:0:01:01 / Sun Feb 28 21:40:17 2016
GPGPU-Sim PTX: 22800000 instructions simulated : ctaid=(8,0,0) tid=(63,0,0)
GPGPU-Sim PTX: 22900000 instructions simulated : ctaid=(8,0,0) tid=(63,0,0)
GPGPU-Sim PTX: 23000000 instructions simulated : ctaid=(81,0,0) tid=(95,0,0)
GPGPU-Sim PTX: 23100000 instructions simulated : ctaid=(28,0,0) tid=(31,0,0)
GPGPU-Sim uArch: cycles simulated: 67000  inst.: 23073344 (ipc=344.4) sim_rate=372150 (inst/sec) elapsed = 0:0:01:02 / Sun Feb 28 21:40:18 2016
GPGPU-Sim PTX: 23200000 instructions simulated : ctaid=(23,0,0) tid=(95,0,0)
GPGPU-Sim PTX: 23300000 instructions simulated : ctaid=(26,0,0) tid=(95,0,0)
GPGPU-Sim PTX: 23400000 instructions simulated : ctaid=(21,0,0) tid=(31,0,0)
GPGPU-Sim PTX: 23500000 instructions simulated : ctaid=(25,0,0) tid=(63,0,0)
GPGPU-Sim PTX: 23600000 instructions simulated : ctaid=(41,0,0) tid=(127,0,0)
GPGPU-Sim uArch: cycles simulated: 68500  inst.: 23600416 (ipc=344.5) sim_rate=374609 (inst/sec) elapsed = 0:0:01:03 / Sun Feb 28 21:40:19 2016
GPGPU-Sim PTX: 23700000 instructions simulated : ctaid=(13,0,0) tid=(31,0,0)
GPGPU-Sim PTX: 23800000 instructions simulated : ctaid=(32,0,0) tid=(127,0,0)
GPGPU-Sim PTX: 23900000 instructions simulated : ctaid=(1,0,0) tid=(63,0,0)
GPGPU-Sim PTX: 24000000 instructions simulated : ctaid=(38,0,0) tid=(31,0,0)
GPGPU-Sim uArch: cycles simulated: 69500  inst.: 23985408 (ipc=345.1) sim_rate=374772 (inst/sec) elapsed = 0:0:01:04 / Sun Feb 28 21:40:20 2016
GPGPU-Sim PTX: 24100000 instructions simulated : ctaid=(55,0,0) tid=(31,0,0)
GPGPU-Sim PTX: 24200000 instructions simulated : ctaid=(46,0,0) tid=(127,0,0)
GPGPU-Sim PTX: 24300000 instructions simulated : ctaid=(104,0,0) tid=(63,0,0)
GPGPU-Sim uArch: cycles simulated: 70500  inst.: 24329184 (ipc=345.1) sim_rate=374295 (inst/sec) elapsed = 0:0:01:05 / Sun Feb 28 21:40:21 2016
GPGPU-Sim PTX: 24400000 instructions simulated : ctaid=(11,0,0) tid=(31,0,0)
GPGPU-Sim PTX: 24500000 instructions simulated : ctaid=(3,0,0) tid=(63,0,0)
GPGPU-Sim PTX: 24600000 instructions simulated : ctaid=(43,0,0) tid=(95,0,0)
GPGPU-Sim PTX: 24700000 instructions simulated : ctaid=(6,0,0) tid=(31,0,0)
GPGPU-Sim uArch: cycles simulated: 71500  inst.: 24679104 (ipc=345.2) sim_rate=373925 (inst/sec) elapsed = 0:0:01:06 / Sun Feb 28 21:40:22 2016
GPGPU-Sim PTX: 24800000 instructions simulated : ctaid=(25,0,0) tid=(31,0,0)
GPGPU-Sim PTX: 24900000 instructions simulated : ctaid=(55,0,0) tid=(31,0,0)
GPGPU-Sim PTX: 25000000 instructions simulated : ctaid=(23,0,0) tid=(127,0,0)
GPGPU-Sim PTX: 25100000 instructions simulated : ctaid=(14,0,0) tid=(127,0,0)
GPGPU-Sim PTX: 25200000 instructions simulated : ctaid=(18,0,0) tid=(127,0,0)
GPGPU-Sim uArch: cycles simulated: 73000  inst.: 25190304 (ipc=345.1) sim_rate=375974 (inst/sec) elapsed = 0:0:01:07 / Sun Feb 28 21:40:23 2016
GPGPU-Sim PTX: 25300000 instructions simulated : ctaid=(51,0,0) tid=(63,0,0)
GPGPU-Sim PTX: 25400000 instructions simulated : ctaid=(52,0,0) tid=(95,0,0)
GPGPU-Sim PTX: 25500000 instructions simulated : ctaid=(89,0,0) tid=(31,0,0)
GPGPU-Sim uArch: cycles simulated: 74000  inst.: 25559360 (ipc=345.4) sim_rate=375872 (inst/sec) elapsed = 0:0:01:08 / Sun Feb 28 21:40:24 2016
GPGPU-Sim PTX: 25600000 instructions simulated : ctaid=(19,0,0) tid=(31,0,0)
GPGPU-Sim PTX: 25700000 instructions simulated : ctaid=(69,0,0) tid=(31,0,0)
GPGPU-Sim PTX: 25800000 instructions simulated : ctaid=(13,0,0) tid=(127,0,0)
GPGPU-Sim PTX: 25900000 instructions simulated : ctaid=(48,0,0) tid=(95,0,0)
GPGPU-Sim uArch: cycles simulated: 75000  inst.: 25899264 (ipc=345.3) sim_rate=375351 (inst/sec) elapsed = 0:0:01:09 / Sun Feb 28 21:40:25 2016
GPGPU-Sim PTX: 26000000 instructions simulated : ctaid=(38,0,0) tid=(127,0,0)
GPGPU-Sim PTX: 26100000 instructions simulated : ctaid=(85,0,0) tid=(95,0,0)
GPGPU-Sim PTX: 26200000 instructions simulated : ctaid=(47,0,0) tid=(63,0,0)
GPGPU-Sim uArch: cycles simulated: 76000  inst.: 26251744 (ipc=345.4) sim_rate=375024 (inst/sec) elapsed = 0:0:01:10 / Sun Feb 28 21:40:26 2016
GPGPU-Sim PTX: 26300000 instructions simulated : ctaid=(64,0,0) tid=(63,0,0)
GPGPU-Sim PTX: 26400000 instructions simulated : ctaid=(13,0,0) tid=(127,0,0)
GPGPU-Sim PTX: 26500000 instructions simulated : ctaid=(79,0,0) tid=(127,0,0)
GPGPU-Sim PTX: 26600000 instructions simulated : ctaid=(27,0,0) tid=(31,0,0)
GPGPU-Sim PTX: 26700000 instructions simulated : ctaid=(37,0,0) tid=(127,0,0)
GPGPU-Sim PTX: 26800000 instructions simulated : ctaid=(74,0,0) tid=(31,0,0)
GPGPU-Sim uArch: cycles simulated: 77500  inst.: 26788096 (ipc=345.7) sim_rate=377297 (inst/sec) elapsed = 0:0:01:11 / Sun Feb 28 21:40:27 2016
GPGPU-Sim PTX: 26900000 instructions simulated : ctaid=(43,0,0) tid=(95,0,0)
GPGPU-Sim PTX: 27000000 instructions simulated : ctaid=(76,0,0) tid=(31,0,0)
GPGPU-Sim PTX: 27100000 instructions simulated : ctaid=(30,0,0) tid=(127,0,0)
GPGPU-Sim uArch: cycles simulated: 78500  inst.: 27121952 (ipc=345.5) sim_rate=376693 (inst/sec) elapsed = 0:0:01:12 / Sun Feb 28 21:40:28 2016
GPGPU-Sim PTX: 27200000 instructions simulated : ctaid=(16,0,0) tid=(127,0,0)
GPGPU-Sim PTX: 27300000 instructions simulated : ctaid=(27,0,0) tid=(127,0,0)
GPGPU-Sim PTX: 27400000 instructions simulated : ctaid=(27,0,0) tid=(95,0,0)
GPGPU-Sim uArch: cycles simulated: 79500  inst.: 27438912 (ipc=345.1) sim_rate=375875 (inst/sec) elapsed = 0:0:01:13 / Sun Feb 28 21:40:29 2016
GPGPU-Sim PTX: 27500000 instructions simulated : ctaid=(88,0,0) tid=(31,0,0)
GPGPU-Sim PTX: 27600000 instructions simulated : ctaid=(68,0,0) tid=(95,0,0)
GPGPU-Sim PTX: 27700000 instructions simulated : ctaid=(91,0,0) tid=(95,0,0)
GPGPU-Sim PTX: 27800000 instructions simulated : ctaid=(66,0,0) tid=(31,0,0)
GPGPU-Sim uArch: cycles simulated: 80500  inst.: 27786208 (ipc=345.2) sim_rate=375489 (inst/sec) elapsed = 0:0:01:14 / Sun Feb 28 21:40:30 2016
GPGPU-Sim PTX: 27900000 instructions simulated : ctaid=(29,0,0) tid=(31,0,0)
GPGPU-Sim PTX: 28000000 instructions simulated : ctaid=(80,0,0) tid=(31,0,0)
GPGPU-Sim PTX: 28100000 instructions simulated : ctaid=(41,0,0) tid=(95,0,0)
GPGPU-Sim uArch: cycles simulated: 81500  inst.: 28116320 (ipc=345.0) sim_rate=374884 (inst/sec) elapsed = 0:0:01:15 / Sun Feb 28 21:40:31 2016
GPGPU-Sim PTX: 28200000 instructions simulated : ctaid=(58,0,0) tid=(63,0,0)
GPGPU-Sim PTX: 28300000 instructions simulated : ctaid=(26,0,0) tid=(63,0,0)
GPGPU-Sim PTX: 28400000 instructions simulated : ctaid=(56,0,0) tid=(127,0,0)
GPGPU-Sim uArch: cycles simulated: 82500  inst.: 28447328 (ipc=344.8) sim_rate=374306 (inst/sec) elapsed = 0:0:01:16 / Sun Feb 28 21:40:32 2016
GPGPU-Sim PTX: 28500000 instructions simulated : ctaid=(40,0,0) tid=(63,0,0)
GPGPU-Sim PTX: 28600000 instructions simulated : ctaid=(64,0,0) tid=(95,0,0)
GPGPU-Sim PTX: 28700000 instructions simulated : ctaid=(17,0,0) tid=(31,0,0)
GPGPU-Sim uArch: cycles simulated: 83500  inst.: 28754144 (ipc=344.4) sim_rate=373430 (inst/sec) elapsed = 0:0:01:17 / Sun Feb 28 21:40:33 2016
GPGPU-Sim PTX: 28800000 instructions simulated : ctaid=(98,0,0) tid=(31,0,0)
GPGPU-Sim PTX: 28900000 instructions simulated : ctaid=(116,0,0) tid=(95,0,0)
GPGPU-Sim PTX: 29000000 instructions simulated : ctaid=(8,0,0) tid=(31,0,0)
GPGPU-Sim PTX: 29100000 instructions simulated : ctaid=(61,0,0) tid=(31,0,0)
GPGPU-Sim uArch: cycles simulated: 84500  inst.: 29101056 (ipc=344.4) sim_rate=373090 (inst/sec) elapsed = 0:0:01:18 / Sun Feb 28 21:40:34 2016
GPGPU-Sim PTX: 29200000 instructions simulated : ctaid=(36,0,0) tid=(63,0,0)
GPGPU-Sim PTX: 29300000 instructions simulated : ctaid=(24,0,0) tid=(63,0,0)
GPGPU-Sim PTX: 29400000 instructions simulated : ctaid=(24,0,0) tid=(127,0,0)
GPGPU-Sim uArch: cycles simulated: 85500  inst.: 29403136 (ipc=343.9) sim_rate=372191 (inst/sec) elapsed = 0:0:01:19 / Sun Feb 28 21:40:35 2016
GPGPU-Sim PTX: 29500000 instructions simulated : ctaid=(0,0,0) tid=(31,0,0)
GPGPU-Sim PTX: 29600000 instructions simulated : ctaid=(47,0,0) tid=(95,0,0)
GPGPU-Sim PTX: 29700000 instructions simulated : ctaid=(83,0,0) tid=(95,0,0)
GPGPU-Sim uArch: cycles simulated: 86500  inst.: 29707264 (ipc=343.4) sim_rate=371340 (inst/sec) elapsed = 0:0:01:20 / Sun Feb 28 21:40:36 2016
GPGPU-Sim PTX: 29800000 instructions simulated : ctaid=(67,0,0) tid=(63,0,0)
GPGPU-Sim PTX: 29900000 instructions simulated : ctaid=(80,0,0) tid=(95,0,0)
GPGPU-Sim PTX: 30000000 instructions simulated : ctaid=(54,0,0) tid=(127,0,0)
GPGPU-Sim uArch: cycles simulated: 87500  inst.: 29975552 (ipc=342.6) sim_rate=370068 (inst/sec) elapsed = 0:0:01:21 / Sun Feb 28 21:40:37 2016
GPGPU-Sim PTX: 30100000 instructions simulated : ctaid=(54,0,0) tid=(95,0,0)
GPGPU-Sim PTX: 30200000 instructions simulated : ctaid=(44,0,0) tid=(127,0,0)
GPGPU-Sim PTX: 30300000 instructions simulated : ctaid=(101,0,0) tid=(31,0,0)
GPGPU-Sim PTX: 30400000 instructions simulated : ctaid=(63,0,0) tid=(63,0,0)
GPGPU-Sim uArch: cycles simulated: 89000  inst.: 30378112 (ipc=341.3) sim_rate=370464 (inst/sec) elapsed = 0:0:01:22 / Sun Feb 28 21:40:38 2016
GPGPU-Sim PTX: 30500000 instructions simulated : ctaid=(68,0,0) tid=(63,0,0)
GPGPU-Sim PTX: 30600000 instructions simulated : ctaid=(33,0,0) tid=(31,0,0)
GPGPU-Sim uArch: Shader 2 finished CTA #0 (89722,0), 7 CTAs running
GPGPU-Sim uArch: core:  2, cta: 0 initialized @(89723,0)
GPGPU-Sim PTX: 30700000 instructions simulated : ctaid=(77,0,0) tid=(127,0,0)
GPGPU-Sim uArch: cycles simulated: 90000  inst.: 30702400 (ipc=341.1) sim_rate=369908 (inst/sec) elapsed = 0:0:01:23 / Sun Feb 28 21:40:39 2016
GPGPU-Sim PTX: 30800000 instructions simulated : ctaid=(98,0,0) tid=(95,0,0)
GPGPU-Sim uArch: Shader 8 finished CTA #0 (90348,0), 7 CTAs running
GPGPU-Sim uArch: core:  8, cta: 0 initialized @(90349,0)
GPGPU-Sim PTX: 30900000 instructions simulated : ctaid=(103,0,0) tid=(31,0,0)
GPGPU-Sim PTX: 31000000 instructions simulated : ctaid=(76,0,0) tid=(95,0,0)
GPGPU-Sim uArch: cycles simulated: 91000  inst.: 31036992 (ipc=341.1) sim_rate=369488 (inst/sec) elapsed = 0:0:01:24 / Sun Feb 28 21:40:40 2016
GPGPU-Sim PTX: 31100000 instructions simulated : ctaid=(10,0,0) tid=(31,0,0)
GPGPU-Sim PTX: 31200000 instructions simulated : ctaid=(76,0,0) tid=(95,0,0)
GPGPU-Sim PTX: 31300000 instructions simulated : ctaid=(5,0,0) tid=(63,0,0)
GPGPU-Sim PTX: 31400000 instructions simulated : ctaid=(65,0,0) tid=(127,0,0)
GPGPU-Sim uArch: cycles simulated: 92000  inst.: 31373088 (ipc=341.0) sim_rate=369095 (inst/sec) elapsed = 0:0:01:25 / Sun Feb 28 21:40:41 2016
GPGPU-Sim PTX: 31500000 instructions simulated : ctaid=(72,0,0) tid=(127,0,0)
GPGPU-Sim PTX: 31600000 instructions simulated : ctaid=(40,0,0) tid=(127,0,0)
GPGPU-Sim PTX: 31700000 instructions simulated : ctaid=(37,0,0) tid=(63,0,0)
GPGPU-Sim uArch: cycles simulated: 93000  inst.: 31679616 (ipc=340.6) sim_rate=368367 (inst/sec) elapsed = 0:0:01:26 / Sun Feb 28 21:40:42 2016
GPGPU-Sim uArch: Shader 4 finished CTA #0 (93292,0), 7 CTAs running
GPGPU-Sim uArch: core:  4, cta: 0 initialized @(93293,0)
GPGPU-Sim PTX: 31800000 instructions simulated : ctaid=(109,0,0) tid=(31,0,0)
GPGPU-Sim PTX: 31900000 instructions simulated : ctaid=(43,0,0) tid=(63,0,0)
GPGPU-Sim uArch: cycles simulated: 94000  inst.: 31931136 (ipc=339.7) sim_rate=367024 (inst/sec) elapsed = 0:0:01:27 / Sun Feb 28 21:40:43 2016
GPGPU-Sim PTX: 32000000 instructions simulated : ctaid=(93,0,0) tid=(95,0,0)
GPGPU-Sim uArch: Shader 7 finished CTA #0 (94177,0), 7 CTAs running
GPGPU-Sim uArch: core:  7, cta: 0 initialized @(94178,0)
GPGPU-Sim PTX: 32100000 instructions simulated : ctaid=(57,0,0) tid=(127,0,0)
GPGPU-Sim PTX: 32200000 instructions simulated : ctaid=(61,0,0) tid=(63,0,0)
GPGPU-Sim uArch: cycles simulated: 95000  inst.: 32233248 (ipc=339.3) sim_rate=366286 (inst/sec) elapsed = 0:0:01:28 / Sun Feb 28 21:40:44 2016
GPGPU-Sim PTX: 32300000 instructions simulated : ctaid=(113,0,0) tid=(31,0,0)
GPGPU-Sim uArch: Shader 1 finished CTA #0 (95069,0), 7 CTAs running
GPGPU-Sim uArch: core:  1, cta: 0 initialized @(95070,0)
GPGPU-Sim uArch: Shader 3 finished CTA #0 (95123,0), 7 CTAs running
GPGPU-Sim uArch: core:  3, cta: 0 initialized @(95124,0)
GPGPU-Sim uArch: Shader 13 finished CTA #0 (95216,0), 7 CTAs running
GPGPU-Sim uArch: core: 13, cta: 0 initialized @(95217,0)
GPGPU-Sim uArch: Shader 0 finished CTA #0 (95343,0), 7 CTAs running
GPGPU-Sim uArch: core:  0, cta: 0 initialized @(95344,0)
GPGPU-Sim PTX: 32400000 instructions simulated : ctaid=(64,0,0) tid=(31,0,0)
GPGPU-Sim PTX: 32500000 instructions simulated : ctaid=(70,0,0) tid=(127,0,0)
GPGPU-Sim PTX: 32600000 instructions simulated : ctaid=(33,0,0) tid=(63,0,0)
GPGPU-Sim uArch: cycles simulated: 96000  inst.: 32572832 (ipc=339.3) sim_rate=365986 (inst/sec) elapsed = 0:0:01:29 / Sun Feb 28 21:40:45 2016
GPGPU-Sim uArch: Shader 6 finished CTA #0 (96244,0), 7 CTAs running
GPGPU-Sim uArch: core:  6, cta: 0 initialized @(96245,0)
GPGPU-Sim PTX: 32700000 instructions simulated : ctaid=(27,0,0) tid=(63,0,0)
GPGPU-Sim uArch: Shader 9 finished CTA #0 (96376,0), 7 CTAs running
GPGPU-Sim uArch: core:  9, cta: 0 initialized @(96377,0)
GPGPU-Sim PTX: 32800000 instructions simulated : ctaid=(81,0,0) tid=(127,0,0)
GPGPU-Sim uArch: Shader 5 finished CTA #0 (96669,0), 7 CTAs running
GPGPU-Sim uArch: core:  5, cta: 0 initialized @(96670,0)
GPGPU-Sim PTX: 32900000 instructions simulated : ctaid=(62,0,0) tid=(31,0,0)
GPGPU-Sim uArch: cycles simulated: 97000  inst.: 32931616 (ipc=339.5) sim_rate=365906 (inst/sec) elapsed = 0:0:01:30 / Sun Feb 28 21:40:46 2016
GPGPU-Sim uArch: Shader 11 finished CTA #0 (97054,0), 7 CTAs running
GPGPU-Sim uArch: core: 11, cta: 0 initialized @(97055,0)
GPGPU-Sim PTX: 33000000 instructions simulated : ctaid=(66,0,0) tid=(63,0,0)
GPGPU-Sim PTX: 33100000 instructions simulated : ctaid=(85,0,0) tid=(63,0,0)
GPGPU-Sim PTX: 33200000 instructions simulated : ctaid=(35,0,0) tid=(63,0,0)
GPGPU-Sim uArch: cycles simulated: 98000  inst.: 33239072 (ipc=339.2) sim_rate=365264 (inst/sec) elapsed = 0:0:01:31 / Sun Feb 28 21:40:47 2016
GPGPU-Sim PTX: 33300000 instructions simulated : ctaid=(96,0,0) tid=(63,0,0)
GPGPU-Sim PTX: 33400000 instructions simulated : ctaid=(34,0,0) tid=(127,0,0)
GPGPU-Sim uArch: Shader 4 finished CTA #1 (98560,0), 7 CTAs running
GPGPU-Sim uArch: core:  4, cta: 1 initialized @(98561,0)
GPGPU-Sim PTX: 33500000 instructions simulated : ctaid=(40,0,0) tid=(63,0,0)
GPGPU-Sim uArch: Shader 2 finished CTA #1 (98888,0), 7 CTAs running
GPGPU-Sim uArch: core:  2, cta: 1 initialized @(98889,0)
GPGPU-Sim PTX: 33600000 instructions simulated : ctaid=(133,0,0) tid=(95,0,0)
GPGPU-Sim uArch: cycles simulated: 99000  inst.: 33594048 (ipc=339.3) sim_rate=365152 (inst/sec) elapsed = 0:0:01:32 / Sun Feb 28 21:40:48 2016
GPGPU-Sim PTX: 33700000 instructions simulated : ctaid=(101,0,0) tid=(95,0,0)
GPGPU-Sim uArch: Shader 14 finished CTA #0 (99410,0), 7 CTAs running
GPGPU-Sim uArch: core: 14, cta: 0 initialized @(99411,0)
GPGPU-Sim PTX: 33800000 instructions simulated : ctaid=(61,0,0) tid=(63,0,0)
GPGPU-Sim uArch: Shader 5 finished CTA #1 (99656,0), 7 CTAs running
GPGPU-Sim uArch: core:  5, cta: 1 initialized @(99657,0)
GPGPU-Sim PTX: 33900000 instructions simulated : ctaid=(119,0,0) tid=(95,0,0)
GPGPU-Sim uArch: Shader 14 finished CTA #1 (99906,0), 7 CTAs running
GPGPU-Sim uArch: core: 14, cta: 1 initialized @(99907,0)
GPGPU-Sim PTX: 34000000 instructions simulated : ctaid=(70,0,0) tid=(31,0,0)
GPGPU-Sim PTX: 34100000 instructions simulated : ctaid=(131,0,0) tid=(95,0,0)
GPGPU-Sim uArch: Shader 11 finished CTA #1 (100397,0), 7 CTAs running
GPGPU-Sim uArch: core: 11, cta: 1 initialized @(100398,0)
GPGPU-Sim uArch: Shader 7 finished CTA #1 (100458,0), 7 CTAs running
GPGPU-Sim uArch: core:  7, cta: 1 initialized @(100459,0)
GPGPU-Sim uArch: cycles simulated: 100500  inst.: 34104384 (ipc=339.3) sim_rate=366713 (inst/sec) elapsed = 0:0:01:33 / Sun Feb 28 21:40:49 2016
GPGPU-Sim PTX: 34200000 instructions simulated : ctaid=(121,0,0) tid=(31,0,0)
GPGPU-Sim uArch: Shader 13 finished CTA #1 (100834,0), 7 CTAs running
GPGPU-Sim uArch: core: 13, cta: 1 initialized @(100835,0)
GPGPU-Sim PTX: 34300000 instructions simulated : ctaid=(22,0,0) tid=(63,0,0)
GPGPU-Sim PTX: 34400000 instructions simulated : ctaid=(46,0,0) tid=(63,0,0)
GPGPU-Sim uArch: cycles simulated: 101500  inst.: 34450656 (ipc=339.4) sim_rate=366496 (inst/sec) elapsed = 0:0:01:34 / Sun Feb 28 21:40:50 2016
GPGPU-Sim PTX: 34500000 instructions simulated : ctaid=(30,0,0) tid=(63,0,0)
GPGPU-Sim uArch: Shader 12 finished CTA #0 (101579,0), 7 CTAs running
GPGPU-Sim uArch: core: 12, cta: 0 initialized @(101580,0)
GPGPU-Sim PTX: 34600000 instructions simulated : ctaid=(130,0,0) tid=(95,0,0)
GPGPU-Sim uArch: Shader 6 finished CTA #1 (101847,0), 7 CTAs running
GPGPU-Sim uArch: core:  6, cta: 1 initialized @(101848,0)
GPGPU-Sim uArch: Shader 3 finished CTA #1 (101981,0), 7 CTAs running
GPGPU-Sim uArch: core:  3, cta: 1 initialized @(101982,0)
GPGPU-Sim PTX: 34700000 instructions simulated : ctaid=(75,0,0) tid=(95,0,0)
GPGPU-Sim uArch: Shader 9 finished CTA #1 (102114,0), 7 CTAs running
GPGPU-Sim uArch: core:  9, cta: 1 initialized @(102115,0)
GPGPU-Sim uArch: Shader 3 finished CTA #2 (102141,0), 7 CTAs running
GPGPU-Sim uArch: core:  3, cta: 2 initialized @(102142,0)
GPGPU-Sim uArch: Shader 10 finished CTA #0 (102210,0), 7 CTAs running
GPGPU-Sim uArch: core: 10, cta: 0 initialized @(102211,0)
GPGPU-Sim PTX: 34800000 instructions simulated : ctaid=(52,0,0) tid=(63,0,0)
GPGPU-Sim uArch: Shader 8 finished CTA #1 (102499,0), 7 CTAs running
GPGPU-Sim uArch: core:  8, cta: 1 initialized @(102500,0)
GPGPU-Sim uArch: cycles simulated: 102500  inst.: 34803456 (ipc=339.5) sim_rate=366352 (inst/sec) elapsed = 0:0:01:35 / Sun Feb 28 21:40:51 2016
GPGPU-Sim PTX: 34900000 instructions simulated : ctaid=(90,0,0) tid=(31,0,0)
GPGPU-Sim PTX: 35000000 instructions simulated : ctaid=(63,0,0) tid=(95,0,0)
GPGPU-Sim PTX: 35100000 instructions simulated : ctaid=(78,0,0) tid=(95,0,0)
GPGPU-Sim PTX: 35200000 instructions simulated : ctaid=(84,0,0) tid=(95,0,0)
GPGPU-Sim uArch: cycles simulated: 103500  inst.: 35179552 (ipc=339.9) sim_rate=366453 (inst/sec) elapsed = 0:0:01:36 / Sun Feb 28 21:40:52 2016
GPGPU-Sim uArch: Shader 0 finished CTA #1 (103603,0), 7 CTAs running
GPGPU-Sim uArch: core:  0, cta: 1 initialized @(103604,0)
GPGPU-Sim PTX: 35300000 instructions simulated : ctaid=(34,0,0) tid=(127,0,0)
GPGPU-Sim uArch: Shader 2 finished CTA #2 (103926,0), 7 CTAs running
GPGPU-Sim uArch: core:  2, cta: 2 initialized @(103927,0)
GPGPU-Sim PTX: 35400000 instructions simulated : ctaid=(125,0,0) tid=(31,0,0)
GPGPU-Sim PTX: 35500000 instructions simulated : ctaid=(89,0,0) tid=(127,0,0)
GPGPU-Sim PTX: 35600000 instructions simulated : ctaid=(97,0,0) tid=(127,0,0)
GPGPU-Sim PTX: 35700000 instructions simulated : ctaid=(123,0,0) tid=(31,0,0)
GPGPU-Sim uArch: cycles simulated: 105000  inst.: 35702560 (ipc=340.0) sim_rate=368067 (inst/sec) elapsed = 0:0:01:37 / Sun Feb 28 21:40:53 2016
GPGPU-Sim PTX: 35800000 instructions simulated : ctaid=(138,0,0) tid=(31,0,0)
GPGPU-Sim uArch: Shader 12 finished CTA #1 (105168,0), 7 CTAs running
GPGPU-Sim uArch: core: 12, cta: 1 initialized @(105169,0)
GPGPU-Sim uArch: Shader 1 finished CTA #1 (105331,0), 7 CTAs running
GPGPU-Sim uArch: core:  1, cta: 1 initialized @(105332,0)
GPGPU-Sim PTX: 35900000 instructions simulated : ctaid=(123,0,0) tid=(31,0,0)
GPGPU-Sim PTX: 36000000 instructions simulated : ctaid=(84,0,0) tid=(31,0,0)
GPGPU-Sim uArch: Shader 7 finished CTA #2 (105707,0), 7 CTAs running
GPGPU-Sim uArch: core:  7, cta: 2 initialized @(105708,0)
GPGPU-Sim uArch: Shader 5 finished CTA #2 (105919,0), 7 CTAs running
GPGPU-Sim uArch: core:  5, cta: 2 initialized @(105920,0)
GPGPU-Sim PTX: 36100000 instructions simulated : ctaid=(98,0,0) tid=(31,0,0)
GPGPU-Sim uArch: cycles simulated: 106000  inst.: 36067360 (ipc=340.3) sim_rate=368034 (inst/sec) elapsed = 0:0:01:38 / Sun Feb 28 21:40:54 2016
GPGPU-Sim PTX: 36200000 instructions simulated : ctaid=(114,0,0) tid=(63,0,0)
GPGPU-Sim uArch: Shader 12 finished CTA #2 (106302,0), 7 CTAs running
GPGPU-Sim uArch: core: 12, cta: 2 initialized @(106303,0)
GPGPU-Sim PTX: 36300000 instructions simulated : ctaid=(140,0,0) tid=(127,0,0)
GPGPU-Sim uArch: Shader 10 finished CTA #1 (106588,0), 7 CTAs running
GPGPU-Sim uArch: core: 10, cta: 1 initialized @(106589,0)
GPGPU-Sim PTX: 36400000 instructions simulated : ctaid=(141,0,0) tid=(95,0,0)
GPGPU-Sim uArch: cycles simulated: 107000  inst.: 36410336 (ipc=340.3) sim_rate=367781 (inst/sec) elapsed = 0:0:01:39 / Sun Feb 28 21:40:55 2016
GPGPU-Sim PTX: 36500000 instructions simulated : ctaid=(132,0,0) tid=(63,0,0)
GPGPU-Sim PTX: 36600000 instructions simulated : ctaid=(96,0,0) tid=(63,0,0)
GPGPU-Sim PTX: 36700000 instructions simulated : ctaid=(145,0,0) tid=(31,0,0)
GPGPU-Sim PTX: 36800000 instructions simulated : ctaid=(150,0,0) tid=(31,0,0)
GPGPU-Sim uArch: cycles simulated: 108000  inst.: 36772160 (ipc=340.5) sim_rate=367721 (inst/sec) elapsed = 0:0:01:40 / Sun Feb 28 21:40:56 2016
GPGPU-Sim PTX: 36900000 instructions simulated : ctaid=(110,0,0) tid=(127,0,0)
GPGPU-Sim uArch: Shader 14 finished CTA #2 (108362,0), 7 CTAs running
GPGPU-Sim uArch: core: 14, cta: 2 initialized @(108363,0)
GPGPU-Sim uArch: Shader 8 finished CTA #2 (108444,0), 7 CTAs running
GPGPU-Sim uArch: core:  8, cta: 2 initialized @(108445,0)
GPGPU-Sim PTX: 37000000 instructions simulated : ctaid=(53,0,0) tid=(127,0,0)
GPGPU-Sim uArch: Shader 4 finished CTA #2 (108663,0), 7 CTAs running
GPGPU-Sim uArch: core:  4, cta: 2 initialized @(108664,0)
GPGPU-Sim PTX: 37100000 instructions simulated : ctaid=(81,0,0) tid=(31,0,0)
GPGPU-Sim uArch: cycles simulated: 109000  inst.: 37136768 (ipc=340.7) sim_rate=367690 (inst/sec) elapsed = 0:0:01:41 / Sun Feb 28 21:40:57 2016
GPGPU-Sim PTX: 37200000 instructions simulated : ctaid=(53,0,0) tid=(63,0,0)
GPGPU-Sim PTX: 37300000 instructions simulated : ctaid=(80,0,0) tid=(95,0,0)
GPGPU-Sim uArch: Shader 13 finished CTA #2 (109465,0), 7 CTAs running
GPGPU-Sim uArch: core: 13, cta: 2 initialized @(109466,0)
GPGPU-Sim PTX: 37400000 instructions simulated : ctaid=(84,0,0) tid=(95,0,0)
GPGPU-Sim PTX: 37500000 instructions simulated : ctaid=(53,0,0) tid=(127,0,0)
GPGPU-Sim uArch: cycles simulated: 110000  inst.: 37511168 (ipc=341.0) sim_rate=367756 (inst/sec) elapsed = 0:0:01:42 / Sun Feb 28 21:40:58 2016
GPGPU-Sim PTX: 37600000 instructions simulated : ctaid=(132,0,0) tid=(31,0,0)
GPGPU-Sim PTX: 37700000 instructions simulated : ctaid=(51,0,0) tid=(127,0,0)
GPGPU-Sim PTX: 37800000 instructions simulated : ctaid=(133,0,0) tid=(63,0,0)
GPGPU-Sim uArch: Shader 9 finished CTA #2 (110840,0), 7 CTAs running
GPGPU-Sim uArch: core:  9, cta: 2 initialized @(110841,0)
GPGPU-Sim PTX: 37900000 instructions simulated : ctaid=(62,0,0) tid=(127,0,0)
GPGPU-Sim uArch: Shader 0 finished CTA #2 (111098,0), 7 CTAs running
GPGPU-Sim uArch: core:  0, cta: 2 initialized @(111099,0)
GPGPU-Sim uArch: Shader 6 finished CTA #2 (111109,0), 7 CTAs running
GPGPU-Sim uArch: core:  6, cta: 2 initialized @(111110,0)
GPGPU-Sim PTX: 38000000 instructions simulated : ctaid=(128,0,0) tid=(95,0,0)
GPGPU-Sim uArch: cycles simulated: 111500  inst.: 38043072 (ipc=341.2) sim_rate=369350 (inst/sec) elapsed = 0:0:01:43 / Sun Feb 28 21:40:59 2016
GPGPU-Sim PTX: 38100000 instructions simulated : ctaid=(61,0,0) tid=(127,0,0)
GPGPU-Sim uArch: Shader 11 finished CTA #2 (111617,0), 7 CTAs running
GPGPU-Sim uArch: core: 11, cta: 2 initialized @(111618,0)
GPGPU-Sim PTX: 38200000 instructions simulated : ctaid=(160,0,0) tid=(95,0,0)
GPGPU-Sim PTX: 38300000 instructions simulated : ctaid=(91,0,0) tid=(95,0,0)
GPGPU-Sim PTX: 38400000 instructions simulated : ctaid=(77,0,0) tid=(63,0,0)
GPGPU-Sim uArch: cycles simulated: 112500  inst.: 38405888 (ipc=341.4) sim_rate=369287 (inst/sec) elapsed = 0:0:01:44 / Sun Feb 28 21:41:00 2016
GPGPU-Sim PTX: 38500000 instructions simulated : ctaid=(82,0,0) tid=(127,0,0)
GPGPU-Sim uArch: Shader 1 finished CTA #2 (112791,0), 7 CTAs running
GPGPU-Sim uArch: core:  1, cta: 2 initialized @(112792,0)
GPGPU-Sim PTX: 38600000 instructions simulated : ctaid=(102,0,0) tid=(31,0,0)
GPGPU-Sim PTX: 38700000 instructions simulated : ctaid=(109,0,0) tid=(31,0,0)
GPGPU-Sim PTX: 38800000 instructions simulated : ctaid=(89,0,0) tid=(95,0,0)
GPGPU-Sim uArch: cycles simulated: 113500  inst.: 38771584 (ipc=341.6) sim_rate=369253 (inst/sec) elapsed = 0:0:01:45 / Sun Feb 28 21:41:01 2016
GPGPU-Sim PTX: 38900000 instructions simulated : ctaid=(112,0,0) tid=(31,0,0)
GPGPU-Sim uArch: Shader 10 finished CTA #2 (113743,0), 7 CTAs running
GPGPU-Sim uArch: core: 10, cta: 2 initialized @(113744,0)
GPGPU-Sim PTX: 39000000 instructions simulated : ctaid=(101,0,0) tid=(63,0,0)
GPGPU-Sim PTX: 39100000 instructions simulated : ctaid=(93,0,0) tid=(31,0,0)
GPGPU-Sim uArch: cycles simulated: 114500  inst.: 39140096 (ipc=341.8) sim_rate=369246 (inst/sec) elapsed = 0:0:01:46 / Sun Feb 28 21:41:02 2016
GPGPU-Sim PTX: 39200000 instructions simulated : ctaid=(154,0,0) tid=(63,0,0)
GPGPU-Sim PTX: 39300000 instructions simulated : ctaid=(78,0,0) tid=(95,0,0)
GPGPU-Sim PTX: 39400000 instructions simulated : ctaid=(71,0,0) tid=(127,0,0)
GPGPU-Sim PTX: 39500000 instructions simulated : ctaid=(101,0,0) tid=(127,0,0)
GPGPU-Sim uArch: cycles simulated: 115500  inst.: 39484320 (ipc=341.9) sim_rate=369012 (inst/sec) elapsed = 0:0:01:47 / Sun Feb 28 21:41:03 2016
GPGPU-Sim PTX: 39600000 instructions simulated : ctaid=(154,0,0) tid=(95,0,0)
GPGPU-Sim PTX: 39700000 instructions simulated : ctaid=(109,0,0) tid=(31,0,0)
GPGPU-Sim PTX: 39800000 instructions simulated : ctaid=(104,0,0) tid=(31,0,0)
GPGPU-Sim PTX: 39900000 instructions simulated : ctaid=(75,0,0) tid=(63,0,0)
GPGPU-Sim uArch: cycles simulated: 116500  inst.: 39853504 (ipc=342.1) sim_rate=369013 (inst/sec) elapsed = 0:0:01:48 / Sun Feb 28 21:41:04 2016
GPGPU-Sim PTX: 40000000 instructions simulated : ctaid=(131,0,0) tid=(31,0,0)
GPGPU-Sim PTX: 40100000 instructions simulated : ctaid=(100,0,0) tid=(31,0,0)
GPGPU-Sim PTX: 40200000 instructions simulated : ctaid=(145,0,0) tid=(127,0,0)
GPGPU-Sim uArch: cycles simulated: 117500  inst.: 40193568 (ipc=342.1) sim_rate=368748 (inst/sec) elapsed = 0:0:01:49 / Sun Feb 28 21:41:05 2016
GPGPU-Sim PTX: 40300000 instructions simulated : ctaid=(80,0,0) tid=(95,0,0)
GPGPU-Sim PTX: 40400000 instructions simulated : ctaid=(150,0,0) tid=(95,0,0)
GPGPU-Sim PTX: 40500000 instructions simulated : ctaid=(78,0,0) tid=(95,0,0)
GPGPU-Sim PTX: 40600000 instructions simulated : ctaid=(63,0,0) tid=(127,0,0)
GPGPU-Sim PTX: 40700000 instructions simulated : ctaid=(104,0,0) tid=(31,0,0)
GPGPU-Sim uArch: cycles simulated: 119000  inst.: 40687584 (ipc=341.9) sim_rate=369887 (inst/sec) elapsed = 0:0:01:50 / Sun Feb 28 21:41:06 2016
GPGPU-Sim PTX: 40800000 instructions simulated : ctaid=(50,0,0) tid=(63,0,0)
GPGPU-Sim PTX: 40900000 instructions simulated : ctaid=(149,0,0) tid=(31,0,0)
GPGPU-Sim PTX: 41000000 instructions simulated : ctaid=(157,0,0) tid=(31,0,0)
[...]
dq_lat_table:0 	0 	0 	0 	0 	0 	0 	0 	0 	0 	0 	0 	0 	0 	0 	0 	0 	0 	0 	0 	0 	0 	0 	0 	0 	0 	0 	0 	0 	0 	0 	0 	
mf_lat_table:0 	0 	0 	0 	0 	0 	0 	4 	10828 	110748 	188583 	2352 	0 	0 	0 	0 	0 	0 	0 	0 	0 	0 	0 	0 	0 	0 	0 	0 	0 	0 	0 	0 	
icnt2mem_lat_table:0 	0 	0 	14401 	5221 	14390 	38564 	53219 	110274 	74446 	2120 	0 	0 	0 	0 	0 	0 	0 	0 	0 	0 	0 	0 	0 	
icnt2sh_lat_table:0 	0 	0 	167042 	20342 	131 	0 	0 	0 	0 	0 	0 	851 	1807 	3687 	7404 	14421 	29900 	59930 	7000 	0 	0 	0 	0 	
mf_lat_pw_table:0 	0 	0 	0 	0 	0 	0 	0 	40 	41 	1046 	0 	0 	0 	0 	0 	0 	0 	0 	0 	0 	0 	0 	0 	0 	0 	0 	0 	0 	0 	0 	0 	
maximum concurrent accesses to same row:
dram[0]:        26        26        14        14        20        26        32        40        16        14        26        30        32        30        18        18 
dram[1]:        22        26        14        14        26        20        32        40        14        16        26        28        32        30        24        12 
dram[2]:        26        26        22        14        24        24        32        38        20        10        21        32        32        30        22        20 
dram[3]:        26        26        14        14        20        26        32        32        16        12        28        28        32        30        16        26 
dram[4]:        26        26        18        20        26        22        44        32        20        22        28        28        30        30        24        20 
dram[5]:        26        26        14        22        26        22        32        32        14        18        22        32        30        30        12        22 
maximum service time to same row:
dram[0]:      4135      4246      9314      5603      4179      2878      2775      3193      8030      6418      2749      3199      3357      4525      8027      5717 
dram[1]:      2984      4381      9521      5284      4191      2790      2823      2831      7122      5711      2839      3219      3352      4028      7104      5792 
dram[2]:      3015      4399      5598      5379      2755      2723      2778      2807      5895      6603      2853      2911      5178      6574      5341      5216 
dram[3]:      3495      3862      5756      5254      2758      2724      3261      2812      6661      6415      3283      2828      5723      5350      5383      5240 
dram[4]:      4010      3844      5021      5678      2709      3599      3445      3386      5209      5715      3067      3394      3948      5225      5754      5257 
dram[5]:      3841      4156      5047      5259      2743      2726      2753      3130      5758      5060      2918      2861      4614      3585      5456      5297 
average row accesses per activate:
dram[0]:  1.548993  1.534710  1.525355  1.515620  1.546230  1.540972  1.577931  1.570889  1.536602  1.525333  1.557522  1.553293  1.557522  1.538669  1.549611  1.536602 
dram[1]:  1.516043  1.510667  1.496021  1.499501  1.520805  1.512684  1.551712  1.531972  1.508240  1.488130  1.525842  1.517241  1.519256  1.512727  1.520771  1.506254 
dram[2]:  1.541808  1.541497  1.526904  1.530010  1.540972  1.542333  1.571968  1.581203  1.537118  1.519761  1.563910  1.564444  1.546468  1.549086  1.542299  1.551186 
dram[3]:  1.525219  1.524386  1.504000  1.509535  1.524899  1.532432  1.536602  1.550661  1.512727  1.508737  1.531459  1.535055  1.532998  1.530435  1.528390  1.524825 
dram[4]:  1.550616  1.538880  1.525355  1.544148  1.536271  1.558763  1.571968  1.571968  1.521783  1.530947  1.532485  1.553293  1.548038  1.550661  1.548038  1.553293 
dram[5]:  1.518419  1.520295  1.497014  1.510546  1.521827  1.528817  1.539704  1.543860  1.508737  1.514730  1.530947  1.534541  1.515232  1.520266  1.524825  1.541260 
average row locality = 437509/285322 = 1.533387
number of total memory accesses made:
dram[0]:         0         0         0         0         0         0         0         0         0         0         0         0         0         0         0         0 
dram[1]:         0         0         0         0         0         0         0         0         0         0         0         0         0         0         0         0 
dram[2]:         0         0         0         0         0         0         0         0         0         0         0         0         0         0         0         0 
dram[3]:         0         0         0         0         0         0         0         0         0         0         0         0         0         0         0         0 
dram[4]:         0         0         0         0         0         0         0         0         0         0         0         0         0         0         0         0 
dram[5]:         0         0         0         0         0         0         0         0         0         0         0         0         0         0         0         0 
total accesses: 0
min_bank_accesses = 0!
min_chip_accesses = 0!
number of total read accesses:
dram[0]:      3251      3246      3232      3232      3242      3242      3264      3264      3264      3264      3264      3264      3264      3264      3264      3264 
dram[1]:      3250      3246      3232      3232      3242      3242      3264      3264      3264      3264      3264      3264      3264      3264      3264      3264 
dram[2]:      3250      3246      3232      3232      3242      3244      3264      3264      3264      3264      3264      3264      3264      3264      3264      3264 
dram[3]:      3250      3246      3232      3232      3242      3244      3264      3264      3264      3264      3264      3264      3264      3264      3264      3264 
dram[4]:      3248      3246      3232      3232      3242      3244      3264      3264      3264      3264      3264      3264      3264      3264      3264      3264 
dram[5]:      3248      3246      3232      3232      3242      3244      3264      3264      3264      3264      3264      3264      3264      3264      3264      3264 
total reads: 312509
bank skew: 3264/3232 = 1.01
chip skew: 52086/52084 = 1.00
number of total write accesses:
dram[0]:      1286      1286      1280      1280      1290      1290      1312      1312      1312      1312      1312      1312      1312      1312      1312      1312 
dram[1]:      1286      1286      1280      1280      1290      1290      1312      1312      1312      1312      1312      1312      1312      1312      1312      1312 
dram[2]:      1286      1286      1280      1280      1290      1292      1312      1312      1312      1312      1312      1312      1312      1312      1312      1312 
dram[3]:      1286      1286      1280      1280      1290      1292      1312      1312      1312      1312      1312      1312      1312      1312      1312      1312 
dram[4]:      1286      1286      1280      1280      1290      1292      1312      1312      1312      1312      1312      1312      1312      1312      1312      1312 
dram[5]:      1286      1286      1280      1280      1290      1292      1312      1312      1312      1312      1312      1312      1312      1312      1312      1312 
total reads: 125000
bank skew: 1312/1280 = 1.02
chip skew: 20834/20832 = 1.00
average mf latency per bank:
dram[0]:        838       821       849       826       848       848       863       861       836       818       840       828       849       833       877       876
dram[1]:        657       671       677       690       685       693       704       714       675       674       671       674       683       693       706       725
dram[2]:        884       894       899       912       894       925       928       945       893       911       880       918       904       922       925       949
dram[3]:        746       709       754       728       768       734       770       749       758       723       756       727       771       727       799       780
dram[4]:        850       840       871       867       878       874       893       889       863       856       863       853       878       883       909       907
dram[5]:        732       757       746       761       752       784       759       790       745       757       743       759       748       766       785       818
maximum mf latency per bank:
dram[0]:       2690      3447      2757      2749      2360      2696      3175      2906      2547      2441      3258      2385      3949      2493      2779      2518
dram[1]:       2143      2450      2202      2145      2587      2190      2246      2465      2141      2346      2707      2302      2206      2319      2211      2581
dram[2]:       2500      3149      3071      2756      2718      2629      3171      2682      2515      2666      2522      2753      2871      2593      2848      2658
dram[3]:       2534      2356      2258      2216      2447      2584      2403      2379      2437      2227      2478      2545      2357      2192      2509      3004
dram[4]:       2367      2541      2532      3145      2576      2537      2645      2954      2781      2859      2435      2630      2596      2555      2797      2482
dram[5]:       2785      2481      2582      2356      2370      3166      2323      2521      2872      2193      2295      2437      2138      2442      2729      2901

Number of Memory Banks Accessed per Memory Operation per Warp (from 0):
0	0	0	0	0	0	0	0	0	0	0	0	0	0	0	0	0	0	0	0	0	0	0	0	0	0	0	0	0	0	0	0	0	0	0	0	0	0	0	0	0	0	0	0	0	0	0	0	0	0	0	0	0	0	0	0	0	0	0	0	0	0	0	0	0	0	0	0	0	0	0	0	0	0	0	0	0	0	0	0	0	0	0	0	0	0	0	0	0	0	0	0	0	0	0	0	
Average # of Memory Banks Accessed per Memory Operation per Warp=-nan

position of mrq chosen
0	0	0	0	0	0	0	0	0	0	0	0	0	0	0	0	

average position of mrq chosen = -nan
Memory Partition 0: 
Cache L2_bank_000:
MSHR contents

Cache L2_bank_001:
MSHR contents

In Dram Latency Queue (total = 0): 
DRAM[0]: 16 bks, busW=2 BL=8 CL=12, tRRD=2 tCCD=6, tRCD=12 tRAS=28 tRP=12 tRC=40
n_cmd=745746 n_nop=359680 n_act=47207 n_pre=47191 n_req=72917 n_rd=208340 n_write=83328 bw_util=0.7822
n_activity=731637 dram_eff=0.7973
bk0: 13004a 363100i bk1: 12984a 359670i bk2: 12928a 348123i bk3: 12928a 339309i bk4: 12968a 326796i bk5: 12968a 306162i bk6: 13056a 289457i bk7: 13056a 261897i bk8: 13056a 366871i bk9: 13056a 351290i bk10: 13056a 343432i bk11: 13056a 335551i bk12: 13056a 317409i bk13: 13056a 302459i bk14: 13056a 282598i bk15: 13056a 249163i 
dram_util_bins: 0 0 0 0 0 0 0 0 0 0
dram_eff_bins: 0 0 0 0 0 0 0 0 0 0
mrqq: max=16 avg=15.2631
Memory Partition 1: 
Cache L2_bank_002:
MSHR contents

Cache L2_bank_003:
MSHR contents
MSHR: tag=0x80f20f80, atomic=0 1 entries : 0x7f7cb0ecb9d0 :  mf: uid=11034603, sid11:w03, part=1, addr=0x80f20f80, load , size=128, unknown  status = IN_PARTITION_DRAM (564959), 

In Dram Latency Queue (total = 0): 
DRAM[1]: 16 bks, busW=2 BL=8 CL=12, tRRD=2 tCCD=6, tRCD=12 tRAS=28 tRP=12 tRC=40
n_cmd=745746 n_nop=357825 n_act=48137 n_pre=48121 n_req=72916 n_rd=208335 n_write=83328 bw_util=0.7822
n_activity=734232 dram_eff=0.7945
bk0: 13000a 368873i bk1: 12984a 363969i bk2: 12928a 351445i bk3: 12928a 337731i bk4: 12968a 325805i bk5: 12968a 313449i bk6: 13056a 288252i bk7: 13056a 266264i bk8: 13056a 364041i bk9: 13056a 351840i bk10: 13056a 348514i bk11: 13055a 334684i bk12: 13056a 321671i bk13: 13056a 303491i bk14: 13056a 285721i bk15: 13056a 253495i 
dram_util_bins: 0 0 0 0 0 0 0 0 0 0
dram_eff_bins: 0 0 0 0 0 0 0 0 0 0
mrqq: max=16 avg=14.7367
Memory Partition 2: 
Cache L2_bank_004:
MSHR contents

Cache L2_bank_005:
MSHR contents

In Dram Latency Queue (total = 0): 
DRAM[2]: 16 bks, busW=2 BL=8 CL=12, tRRD=2 tCCD=6, tRCD=12 tRAS=28 tRP=12 tRC=40
n_cmd=745746 n_nop=359798 n_act=47142 n_pre=47126 n_req=72920 n_rd=208344 n_write=83336 bw_util=0.7823
n_activity=730193 dram_eff=0.7989
bk0: 13000a 372005i bk1: 12984a 358569i bk2: 12928a 347387i bk3: 12928a 333701i bk4: 12968a 325072i bk5: 12976a 303790i bk6: 13056a 286599i bk7: 13056a 262772i bk8: 13056a 362463i bk9: 13056a 350356i bk10: 13056a 347132i bk11: 13056a 326968i bk12: 13056a 311347i bk13: 13056a 299936i bk14: 13056a 282199i bk15: 13056a 256660i 
dram_util_bins: 0 0 0 0 0 0 0 0 0 0
dram_eff_bins: 0 0 0 0 0 0 0 0 0 0
mrqq: max=16 avg=15.2585
Memory Partition 3: 
Cache L2_bank_006:
MSHR contents

Cache L2_bank_007:
MSHR contents

In Dram Latency Queue (total = 0): 
DRAM[3]: 16 bks, busW=2 BL=8 CL=12, tRRD=2 tCCD=6, tRCD=12 tRAS=28 tRP=12 tRC=40
n_cmd=745746 n_nop=358494 n_act=47794 n_pre=47778 n_req=72920 n_rd=208344 n_write=83336 bw_util=0.7823
n_activity=732697 dram_eff=0.7962
bk0: 13000a 368827i bk1: 12984a 359085i bk2: 12928a 345779i bk3: 12928a 330514i bk4: 12968a 327462i bk5: 12976a 305388i bk6: 13056a 277121i bk7: 13056a 260779i bk8: 13056a 359929i bk9: 13056a 344833i bk10: 13056a 346299i bk11: 13056a 328450i bk12: 13056a 314987i bk13: 13056a 300516i bk14: 13056a 278674i bk15: 13056a 247349i 
dram_util_bins: 0 0 0 0 0 0 0 0 0 0
dram_eff_bins: 0 0 0 0 0 0 0 0 0 0
mrqq: max=16 avg=14.9973
Memory Partition 4: 
Cache L2_bank_008:
MSHR contents

Cache L2_bank_009:
MSHR contents

In Dram Latency Queue (total = 0): 
DRAM[4]: 16 bks, busW=2 BL=8 CL=12, tRRD=2 tCCD=6, tRCD=12 tRAS=28 tRP=12 tRC=40
n_cmd=745746 n_nop=359754 n_act=47168 n_pre=47152 n_req=72918 n_rd=208336 n_write=83336 bw_util=0.7822
n_activity=731203 dram_eff=0.7978
bk0: 12992a 373491i bk1: 12984a 359515i bk2: 12928a 353977i bk3: 12928a 335419i bk4: 12968a 326700i bk5: 12976a 306679i bk6: 13056a 285110i bk7: 13056a 262855i bk8: 13056a 368977i bk9: 13056a 350869i bk10: 13056a 344629i bk11: 13056a 327535i bk12: 13056a 317023i bk13: 13056a 299156i bk14: 13056a 280996i bk15: 13056a 251788i 
dram_util_bins: 0 0 0 0 0 0 0 0 0 0
dram_eff_bins: 0 0 0 0 0 0 0 0 0 0
mrqq: max=16 avg=15.3243
Memory Partition 5: 
Cache L2_bank_010:
MSHR contents

Cache L2_bank_011:
MSHR contents

In Dram Latency Queue (total = 0): 
DRAM[5]: 16 bks, busW=2 BL=8 CL=12, tRRD=2 tCCD=6, tRCD=12 tRAS=28 tRP=12 tRC=40
n_cmd=745746 n_nop=358342 n_act=47874 n_pre=47858 n_req=72918 n_rd=208336 n_write=83336 bw_util=0.7822
n_activity=732980 dram_eff=0.7959
bk0: 12992a 373866i bk1: 12984a 353438i bk2: 12928a 346779i bk3: 12928a 335535i bk4: 12968a 323655i bk5: 12976a 302610i bk6: 13056a 285013i bk7: 13056a 251583i bk8: 13056a 361077i bk9: 13056a 350974i bk10: 13056a 346795i bk11: 13056a 333388i bk12: 13056a 315744i bk13: 13056a 292322i bk14: 13056a 274196i bk15: 13056a 249671i 
dram_util_bins: 0 0 0 0 0 0 0 0 0 0
dram_eff_bins: 0 0 0 0 0 0 0 0 0 0
mrqq: max=16 avg=15.0382

========= L2 cache stats =========
L2_cache_bank[0]: Access = 26087, Miss = 26045, Miss_rate = 0.998, Pending_hits = 9, Reservation_fails = 21568
L2_cache_bank[1]: Access = 26040, Miss = 26040, Miss_rate = 1.000, Pending_hits = 0, Reservation_fails = 18173
L2_cache_bank[2]: Access = 26072, Miss = 26044, Miss_rate = 0.999, Pending_hits = 6, Reservation_fails = 12327
L2_cache_bank[3]: Access = 26040, Miss = 26040, Miss_rate = 1.000, Pending_hits = 0, Reservation_fails = 14540
L2_cache_bank[4]: Access = 26072, Miss = 26044, Miss_rate = 0.999, Pending_hits = 6, Reservation_fails = 77072
L2_cache_bank[5]: Access = 26042, Miss = 26042, Miss_rate = 1.000, Pending_hits = 0, Reservation_fails = 101089
L2_cache_bank[6]: Access = 26072, Miss = 26044, Miss_rate = 0.999, Pending_hits = 6, Reservation_fails = 6887
L2_cache_bank[7]: Access = 26042, Miss = 26042, Miss_rate = 1.000, Pending_hits = 0, Reservation_fails = 9026
L2_cache_bank[8]: Access = 26042, Miss = 26042, Miss_rate = 1.000, Pending_hits = 0, Reservation_fails = 15019
L2_cache_bank[9]: Access = 26042, Miss = 26042, Miss_rate = 1.000, Pending_hits = 0, Reservation_fails = 28569
L2_cache_bank[10]: Access = 26042, Miss = 26042, Miss_rate = 1.000, Pending_hits = 0, Reservation_fails = 14550
L2_cache_bank[11]: Access = 26042, Miss = 26042, Miss_rate = 1.000, Pending_hits = 0, Reservation_fails = 22870
L2_total_cache_accesses = 312635
L2_total_cache_misses = 312509
L2_total_cache_miss_rate = 0.9996
L2_total_cache_pending_hits = 27
L2_total_cache_reservation_fails = 341690
L2_total_cache_breakdown:
	L2_cache_stats_breakdown[GLOBAL_ACC_R][MISS] = 187500
	L2_cache_stats_breakdown[GLOBAL_ACC_R][RESERVATION_FAIL] = 205508
	L2_cache_stats_breakdown[CONST_ACC_R][HIT] = 11
	L2_cache_stats_breakdown[CONST_ACC_R][HIT_RESERVED] = 3
	L2_cache_stats_breakdown[CONST_ACC_R][MISS] = 1
	L2_cache_stats_breakdown[CONST_ACC_R][RESERVATION_FAIL] = 113
	L2_cache_stats_breakdown[GLOBAL_ACC_W][MISS] = 125000
	L2_cache_stats_breakdown[GLOBAL_ACC_W][RESERVATION_FAIL] = 134924
	L2_cache_stats_breakdown[INST_ACC_R][HIT] = 88
	L2_cache_stats_breakdown[INST_ACC_R][HIT_RESERVED] = 24
	L2_cache_stats_breakdown[INST_ACC_R][MISS] = 8
	L2_cache_stats_breakdown[INST_ACC_R][RESERVATION_FAIL] = 1145
L2_cache_data_port_util = 0.000
L2_cache_fill_port_util = 0.184

icnt_total_pkts_mem_to_simt=1063145
icnt_total_pkts_simt_to_mem=812635
LD_mem_lat_dist  0 0 0 0 0 0 0 0 0 0 0 0 0 0 0 0 0 0 0 0 0 0 0 0 0 0 0
ST_mem_lat_dist  0 0 0 0 0 0 0 0 0 0 0 0 0 0 0 0 0 0 0 0 0 0 0 0 0 0 0
----------------------------Interconnect-DETAILS--------------------------------
Class 0:
Packet latency average = 85.9405
	minimum = 6
	maximum = 1291
Network latency average = 56.2201
	minimum = 6
	maximum = 1244
Slowest packet = 94311
Flit latency average = 40.794
	minimum = 6
	maximum = 1244
Slowest flit = 282773
Fragmentation average = 1.26688
	minimum = 0
	maximum = 729
Injected packet rate average = 0.0409908
	minimum = 0.0357353 (at node 1)
	maximum = 0.046175 (at node 15)
Accepted packet rate average = 0.0409908
	minimum = 0.0357353 (at node 1)
	maximum = 0.046175 (at node 15)
Injected flit rate average = 0.12297
	minimum = 0.0928862 (at node 1)
	maximum = 0.157075 (at node 15)
Accepted flit rate average= 0.12297
	minimum = 0.119839 (at node 16)
	maximum = 0.129345 (at node 11)
Injected packet length average = 2.99995
Accepted packet length average = 2.99995
Total in-flight flits = 0 (0 measured)
====== Overall Traffic Statistics ======
====== Traffic class 0 ======
Packet latency average = 85.9405 (1 samples)
	minimum = 6 (1 samples)
	maximum = 1291 (1 samples)
Network latency average = 56.2201 (1 samples)
	minimum = 6 (1 samples)
	maximum = 1244 (1 samples)
Flit latency average = 40.794 (1 samples)
	minimum = 6 (1 samples)
	maximum = 1244 (1 samples)
Fragmentation average = 1.26688 (1 samples)
	minimum = 0 (1 samples)
	maximum = 729 (1 samples)
Injected packet rate average = 0.0409908 (1 samples)
	minimum = 0.0357353 (1 samples)
	maximum = 0.046175 (1 samples)
Accepted packet rate average = 0.0409908 (1 samples)
	minimum = 0.0357353 (1 samples)
	maximum = 0.046175 (1 samples)
Injected flit rate average = 0.12297 (1 samples)
	minimum = 0.0928862 (1 samples)
	maximum = 0.157075 (1 samples)
Accepted flit rate average = 0.12297 (1 samples)
	minimum = 0.119839 (1 samples)
	maximum = 0.129345 (1 samples)
Injected packet size average = 2.99995 (1 samples)
Accepted packet size average = 2.99995 (1 samples)
Hops average = 1 (1 samples)
----------------------------END-of-Interconnect-DETAILS-------------------------


gpgpu_simulation_time = 0 days, 0 hrs, 9 min, 15 sec (555 sec)
gpgpu_simulation_rate = 352759 (inst/sec)
gpgpu_simulation_rate = 1017 (cycle/sec)
GPGPU-Sim API: Stream Manager State
GPGPU-Sim: detected inactive GPU simulation thread
Options count             : 4000000     
BlackScholesGPU() time    : 551100.187500 msec
Effective memory bandwidth: 0.000073 GB/s
Gigaoptions per second    : 0.000007     
Reading back GPU results...
Checking the results...
...running CPU calculations.
Comparing the results...
L1 norm: 1.729535E-07
Max absolute error: 1.192093E-05
TEST PASSED
Shutting down...
...releasing GPU memory.
...releasing CPU memory.
Shutdown done.
GPGPU-Sim: exit_simulation called
GPGPU-Sim: simulation thread signaled exit

Press ENTER to exit...
