

        *** GPGPU-Sim Simulator Version 3.2.2  [build 0] ***


GPGPU-Sim PTX: simulation mode 0 (can change with PTX_SIM_MODE_FUNC environment variable:
               1=functional simulation only, 0=detailed performance simulator)
GPGPU-Sim: Configuration options:

-network_mode                           1 # Interconnection network mode
-inter_config_file   config_fermi_islip.icnt # Interconnection network config file
-gpgpu_ptx_use_cuobjdump                    1 # Use cuobjdump to extract ptx and sass from binaries
-gpgpu_experimental_lib_support                    0 # Try to extract code from cuda libraries [Broken because of unknown cudaGetExportTable]
-gpgpu_ptx_convert_to_ptxplus                    0 # Convert SASS (native ISA) to ptxplus and run ptxplus
-gpgpu_ptx_force_max_capability                   20 # Force maximum compute capability
-gpgpu_ptx_inst_debug_to_file                    0 # Dump executed instructions' debug information to file
-gpgpu_ptx_inst_debug_file       inst_debug.txt # Executed instructions' debug output file
-gpgpu_ptx_inst_debug_thread_uid                    1 # Thread UID for executed instructions' debug output
-gpgpu_simd_model                       1 # 1 = post-dominator
-gpgpu_shader_core_pipeline              1536:32 # shader core pipeline config, i.e., {<nthread>:<warpsize>}
-gpgpu_tex_cache:l1  4:128:24,L:R:m:N:L,F:128:4,128:2 # per-shader L1 texture cache  (READ-ONLY) config  {<nsets>:<bsize>:<assoc>,<rep>:<wr>:<alloc>:<wr_alloc>,<mshr>:<N>:<merge>,<mq>:<rf>}
-gpgpu_const_cache:l1 64:64:2,L:R:f:N:L,A:2:32,4 # per-shader L1 constant memory cache  (READ-ONLY) config  {<nsets>:<bsize>:<assoc>,<rep>:<wr>:<alloc>:<wr_alloc>,<mshr>:<N>:<merge>,<mq>} 
-gpgpu_cache:il1     4:128:4,L:R:f:N:L,A:2:32,4 # shader L1 instruction cache config  {<nsets>:<bsize>:<assoc>,<rep>:<wr>:<alloc>:<wr_alloc>,<mshr>:<N>:<merge>,<mq>} 
-gpgpu_cache:dl1     32:128:16,L:L:m:N:H,A:32:8,8 # per-shader L1 data cache config  {<nsets>:<bsize>:<assoc>,<rep>:<wr>:<alloc>:<wr_alloc>,<mshr>:<N>:<merge>,<mq> | none}
-gpgpu_cache:dl1PrefL1                 none # per-shader L1 data cache config  {<nsets>:<bsize>:<assoc>,<rep>:<wr>:<alloc>:<wr_alloc>,<mshr>:<N>:<merge>,<mq> | none}
-gpgpu_cache:dl1PreShared                 none # per-shader L1 data cache config  {<nsets>:<bsize>:<assoc>,<rep>:<wr>:<alloc>:<wr_alloc>,<mshr>:<N>:<merge>,<mq> | none}
-gmem_skip_L1D                          0 # global memory access skip L1D cache (implements -Xptxas -dlcm=cg, default=no skip)
-gpgpu_perfect_mem                      0 # enable perfect memory mode (no cache miss)
-n_regfile_gating_group                    4 # group of lanes that should be read/written together)
-gpgpu_clock_gated_reg_file                    0 # enable clock gated reg file for power calculations
-gpgpu_clock_gated_lanes                    0 # enable clock gated lanes for power calculations
-gpgpu_shader_registers                32768 # Number of registers per shader core. Limits number of concurrent CTAs. (default 8192)
-gpgpu_shader_cta                       8 # Maximum number of concurrent CTAs in shader (default 8)
-gpgpu_num_cta_barriers                   16 # Maximum number of named barriers per CTA (default 16)
-gpgpu_n_clusters                      15 # number of processing clusters
-gpgpu_n_cores_per_cluster                    1 # number of simd cores per cluster
-gpgpu_n_cluster_ejection_buffer_size                    8 # number of packets in ejection buffer
-gpgpu_n_ldst_response_buffer_size                    2 # number of response packets in ld/st unit ejection buffer
-gpgpu_shmem_size                   16384 # Size of shared memory per shader core (default 16kB)
-gpgpu_shmem_size                   49152 # Size of shared memory per shader core (default 16kB)
-gpgpu_shmem_size_PrefL1                16384 # Size of shared memory per shader core (default 16kB)
-gpgpu_shmem_size_PrefShared                16384 # Size of shared memory per shader core (default 16kB)
-gpgpu_shmem_num_banks                   32 # Number of banks in the shared memory in each shader core (default 16)
-gpgpu_shmem_limited_broadcast                    0 # Limit shared memory to do one broadcast per cycle (default on)
-gpgpu_shmem_warp_parts                    1 # Number of portions a warp is divided into for shared memory bank conflict check 
-gpgpu_warpdistro_shader                   -1 # Specify which shader core to collect the warp size distribution from
-gpgpu_warp_issue_shader                    0 # Specify which shader core to collect the warp issue distribution from
-gpgpu_local_mem_map                    1 # Mapping from local memory space address to simulated GPU physical address space (default = enabled)
-gpgpu_num_reg_banks                   16 # Number of register banks (default = 8)
-gpgpu_reg_bank_use_warp_id                    0 # Use warp ID in mapping registers to banks (default = off)
-gpgpu_operand_collector_num_units_sp                    6 # number of collector units (default = 4)
-gpgpu_operand_collector_num_units_sfu                    8 # number of collector units (default = 4)
-gpgpu_operand_collector_num_units_mem                    2 # number of collector units (default = 2)
-gpgpu_operand_collector_num_units_gen                    0 # number of collector units (default = 0)
-gpgpu_operand_collector_num_in_ports_sp                    2 # number of collector unit in ports (default = 1)
-gpgpu_operand_collector_num_in_ports_sfu                    1 # number of collector unit in ports (default = 1)
-gpgpu_operand_collector_num_in_ports_mem                    1 # number of collector unit in ports (default = 1)
-gpgpu_operand_collector_num_in_ports_gen                    0 # number of collector unit in ports (default = 0)
-gpgpu_operand_collector_num_out_ports_sp                    2 # number of collector unit in ports (default = 1)
-gpgpu_operand_collector_num_out_ports_sfu                    1 # number of collector unit in ports (default = 1)
-gpgpu_operand_collector_num_out_ports_mem                    1 # number of collector unit in ports (default = 1)
-gpgpu_operand_collector_num_out_ports_gen                    0 # number of collector unit in ports (default = 0)
-gpgpu_coalesce_arch                   13 # Coalescing arch (default = 13, anything else is off for now)
-gpgpu_num_sched_per_core                    2 # Number of warp schedulers per core
-gpgpu_max_insn_issue_per_warp                    1 # Max number of instructions that can be issued per warp in one cycle by scheduler
-gpgpu_simt_core_sim_order                    1 # Select the simulation order of cores in a cluster (0=Fix, 1=Round-Robin)
-gpgpu_pipeline_widths        2,1,1,2,1,1,2 # Pipeline widths ID_OC_SP,ID_OC_SFU,ID_OC_MEM,OC_EX_SP,OC_EX_SFU,OC_EX_MEM,EX_WB
-gpgpu_num_sp_units                     2 # Number of SP units (default=1)
-gpgpu_num_sfu_units                    1 # Number of SF units (default=1)
-gpgpu_num_mem_units                    1 # Number if ldst units (default=1) WARNING: not hooked up to anything
-gpgpu_scheduler                      gto # Scheduler configuration: < lrr | gto | two_level_active > If two_level_active:<num_active_warps>:<inner_prioritization>:<outer_prioritization>For complete list of prioritization values see shader.h enum scheduler_prioritization_typeDefault: gto
-gpgpu_dram_scheduler                    1 # 0 = fifo, 1 = FR-FCFS (defaul)
-gpgpu_dram_partition_queues              8:8:8:8 # i2$:$2d:d2$:$2i
-l2_ideal                               0 # Use a ideal L2 cache that always hit
-gpgpu_cache:dl2     64:128:8,L:B:m:W:L,A:32:4,4:0,32 # unified banked L2 data cache config  {<nsets>:<bsize>:<assoc>,<rep>:<wr>:<alloc>:<wr_alloc>,<mshr>:<N>:<merge>,<mq>}
-gpgpu_cache:dl2_texture_only                    0 # L2 cache used for texture only
-gpgpu_n_mem                            6 # number of memory modules (e.g. memory controllers) in gpu
-gpgpu_n_sub_partition_per_mchannel                    2 # number of memory subpartition in each memory module
-gpgpu_n_mem_per_ctrlr                    2 # number of memory chips per memory controller
-gpgpu_memlatency_stat                   14 # track and display latency statistics 0x2 enables MC, 0x4 enables queue logs
-gpgpu_frfcfs_dram_sched_queue_size                   16 # 0 = unlimited (default); # entries per chip
-gpgpu_dram_return_queue_size                  116 # 0 = unlimited (default); # entries per chip
-gpgpu_dram_buswidth                    4 # default = 4 bytes (8 bytes per cycle at DDR)
-gpgpu_dram_burst_length                    8 # Burst length of each DRAM request (default = 4 data bus cycle)
-dram_data_command_freq_ratio                    4 # Frequency ratio between DRAM data bus and command bus (default = 2 times, i.e. DDR)
-gpgpu_dram_timing_opt nbk=16:CCD=2:RRD=6:RCD=12:RAS=28:RP=12:RC=40: CL=12:WL=4:CDLR=5:WR=12:nbkgrp=4:CCDL=3:RTPL=2 # DRAM timing parameters = {nbk:tCCD:tRRD:tRCD:tRAS:tRP:tRC:CL:WL:tCDLR:tWR:nbkgrp:tCCDL:tRTPL}
-rop_latency                          120 # ROP queue latency (default 85)
-dram_latency                         100 # DRAM latency (default 30)
-gpgpu_mem_addr_mapping dramid@8;00000000.00000000.00000000.00000000.0000RRRR.RRRRRRRR.BBBCCCCB.CCSSSSSS # mapping memory address to dram model {dramid@<start bit>;<memory address map>}
-gpgpu_mem_addr_test                    0 # run sweep test to check address mapping for aliased address
-gpgpu_mem_address_mask                    1 # 0 = old addressing mask, 1 = new addressing mask, 2 = new add. mask + flipped bank sel and chip sel bits
-gpuwattch_xml_file  gpuwattch_gtx480.xml # GPUWattch XML file
-power_simulation_enabled                    0 # Turn on power simulator (1=On, 0=Off)
-power_per_cycle_dump                    0 # Dump detailed power output each cycle
-power_trace_enabled                    0 # produce a file for the power trace (1=On, 0=Off)
-power_trace_zlevel                     6 # Compression level of the power trace output log (0=no comp, 9=highest)
-steady_power_levels_enabled                    0 # produce a file for the steady power levels (1=On, 0=Off)
-steady_state_definition                  8:4 # allowed deviation:number of samples
-gpgpu_max_cycle                        0 # terminates gpu simulation early (0 = no limit)
-gpgpu_max_insn                         0 # terminates gpu simulation early (0 = no limit)
-gpgpu_max_cta                          0 # terminates gpu simulation early (0 = no limit)
-gpgpu_runtime_stat                   500 # display runtime statistics such as dram utilization {<freq>:<flag>}
-liveness_message_freq                    1 # Minimum number of seconds between simulation liveness messages (0 = always print)
-gpgpu_flush_l1_cache                    0 # Flush L1 cache at the end of each kernel call
-gpgpu_flush_l2_cache                    0 # Flush L2 cache at the end of each kernel call
-gpgpu_deadlock_detect                    1 # Stop the simulation at deadlock (1=on (default), 0=off)
-gpgpu_ptx_instruction_classification                    0 # if enabled will classify ptx instruction types per kernel (Max 255 kernels now)
-gpgpu_ptx_sim_mode                     0 # Select between Performance (default) or Functional simulation (1)
-gpgpu_clock_domains 700.0:700.0:700.0:924.0 # Clock Domain Frequencies in MhZ {<Core Clock>:<ICNT Clock>:<L2 Clock>:<DRAM Clock>}
-gpgpu_max_concurrent_kernel                    8 # maximum kernels that can run concurrently on GPU
-gpgpu_cflog_interval                    0 # Interval between each snapshot in control flow logger
-visualizer_enabled                     0 # Turn on visualizer output (1=On, 0=Off)
-visualizer_outputfile                 NULL # Specifies the output log file for visualizer
-visualizer_zlevel                      6 # Compression level of the visualizer output log (0=no comp, 9=highest)
-trace_enabled                          0 # Turn on traces
-trace_components                    none # comma seperated list of traces to enable. Complete list found in trace_streams.tup. Default none
-trace_sampling_core                    0 # The core which is printed using CORE_DPRINTF. Default 0
-trace_sampling_memory_partition                   -1 # The memory partition which is printed using MEMPART_DPRINTF. Default -1 (i.e. all)
-enable_ptx_file_line_stats                    1 # Turn on PTX source line statistic profiling. (1 = On)
-ptx_line_stats_filename gpgpu_inst_stats.txt # Output file for PTX source line statistics.
-save_embedded_ptx                      0 # saves ptx files embedded in binary as <n>.ptx
-keep                                   0 # keep intermediate files created by GPGPU-Sim when interfacing with external programs
-gpgpu_ptx_save_converted_ptxplus                    0 # Saved converted ptxplus to a file
-ptx_opcode_latency_int         4,13,4,5,145 # Opcode latencies for integers <ADD,MAX,MUL,MAD,DIV>Default 1,1,19,25,145
-ptx_opcode_latency_fp          4,13,4,5,39 # Opcode latencies for single precision floating points <ADD,MAX,MUL,MAD,DIV>Default 1,1,1,1,30
-ptx_opcode_latency_dp         8,19,8,8,330 # Opcode latencies for double precision floating points <ADD,MAX,MUL,MAD,DIV>Default 8,8,8,8,335
-ptx_opcode_initiation_int            1,2,2,1,8 # Opcode initiation intervals for integers <ADD,MAX,MUL,MAD,DIV>Default 1,1,4,4,32
-ptx_opcode_initiation_fp            1,2,1,1,4 # Opcode initiation intervals for single precision floating points <ADD,MAX,MUL,MAD,DIV>Default 1,1,1,1,5
-ptx_opcode_initiation_dp         8,16,8,8,130 # Opcode initiation intervals for double precision floating points <ADD,MAX,MUL,MAD,DIV>Default 8,8,8,8,130
DRAM Timing Options:
nbk                                    16 # number of banks
CCD                                     2 # column to column delay
RRD                                     6 # minimal delay between activation of rows in different banks
RCD                                    12 # row to column delay
RAS                                    28 # time needed to activate row
RP                                     12 # time needed to precharge (deactivate) row
RC                                     40 # row cycle time
CDLR                                    5 # switching from write to read (changes tWTR)
WR                                     12 # last data-in to row precharge
CL                                     12 # CAS latency
WL                                      4 # Write latency
nbkgrp                                  4 # number of bank groups
CCDL                                    3 # column to column delay between accesses to different bank groups
RTPL                                    2 # read to precharge delay between accesses to different bank groups
Total number of memory sub partition = 12
addr_dec_mask[CHIP]  = 0000000000000000 	high:64 low:0
addr_dec_mask[BK]    = 000000000000e100 	high:16 low:8
addr_dec_mask[ROW]   = 000000000fff0000 	high:28 low:16
addr_dec_mask[COL]   = 0000000000001eff 	high:13 low:0
addr_dec_mask[BURST] = 000000000000003f 	high:6 low:0
sub_partition_id_mask = 0000000000000100
GPGPU-Sim uArch: clock freqs: 700000000.000000:700000000.000000:700000000.000000:924000000.000000
GPGPU-Sim uArch: clock periods: 0.00000000142857142857:0.00000000142857142857:0.00000000142857142857:0.00000000108225108225
*** Initializing Memory Statistics ***
GPGPU-Sim uArch: interconnect node map (shaderID+MemID to icntID)
GPGPU-Sim uArch: Memory nodes ID start from index: 15
GPGPU-Sim uArch:    0   1   2   3   4
GPGPU-Sim uArch:    5   6   7   8   9
GPGPU-Sim uArch:   10  11  12  13  14
GPGPU-Sim uArch:   15  16  17  18  19
GPGPU-Sim uArch:   20  21  22  23  24
GPGPU-Sim uArch:   25  26
GPGPU-Sim uArch: interconnect node reverse map (icntID to shaderID+MemID)
GPGPU-Sim uArch: Memory nodes start from ID: 15
GPGPU-Sim uArch:    0   1   2   3   4
GPGPU-Sim uArch:    5   6   7   8   9
GPGPU-Sim uArch:   10  11  12  13  14
GPGPU-Sim uArch:   15  16  17  18  19
GPGPU-Sim uArch:   20  21  22  23  24
GPGPU-Sim uArch:   25  26
316bcbff5f8f022bb22b20bb4721e93e  /sciclone/data20/adwait/applications/benchmarks/CUDA/RAY/gpgpu_ptx_sim__RAY
GPGPU-Sim uArch: performance model initialization complete.
GPGPU-Sim PTX: __cudaRegisterFatBinary, fat_cubin_handle = 1, filename=rayTracing.cu
self exe links to: /sciclone/data20/adwait/applications/benchmarks/CUDA/RAY/gpgpu_ptx_sim__RAY
Running md5sum using "md5sum /sciclone/data20/adwait/applications/benchmarks/CUDA/RAY/gpgpu_ptx_sim__RAY "
Parsing file _cuobjdump_complete_output_JUCA1I
######### cuobjdump parser ########
## Adding new section ELF
Adding arch: sm_20
Adding identifier: rayTracing.cu
## Adding new section PTX
Adding ptx filename: _cuobjdump_1.ptx
Adding arch: sm_20
Adding identifier: rayTracing.cu
Done parsing!!!
GPGPU-Sim PTX: __cudaRegisterFunction _Z6renderPjP4Nodejjff : hostFun 0x0x40ce13, fat_cubin_handle = 1
GPGPU-Sim PTX: allocating stack frame region for .param "__cudaretf__Zmi6float3S_" from 0x0 to 0xc
GPGPU-Sim PTX: allocating stack frame region for .param "__cudaparmf1__Zmi6float3S_" from 0xc to 0x18
GPGPU-Sim PTX: allocating stack frame region for .param "__cudaparmf2__Zmi6float3S_" from 0x18 to 0x24
GPGPU-Sim PTX: allocating stack frame region for .param "__cudaretf__Z9normalize6float3" from 0x0 to 0xc
GPGPU-Sim PTX: allocating stack frame region for .param "__cudaparmf1__Z9normalize6float3" from 0xc to 0x18
GPGPU-Sim PTX: allocating stack frame region for .param "__cudaretf__Z18intersectionSphere5Rayon6float3f" from 0x0 to 0x4
GPGPU-Sim PTX: allocating stack frame region for .param "__cudaparmf1__Z18intersectionSphere5Rayon6float3f" from 0x4 to 0x1c
GPGPU-Sim PTX: allocating stack frame region for .param "__cudaparmf2__Z18intersectionSphere5Rayon6float3f" from 0x1c to 0x28
GPGPU-Sim PTX: allocating stack frame region for .param "__cudaparmf3__Z18intersectionSphere5Rayon6float3f" from 0x28 to 0x2c
GPGPU-Sim PTX: allocating stack frame region for .param "__cudaretf__Z16intersectionPlan5Rayon6float3S0_" from 0x0 to 0x4
GPGPU-Sim PTX: allocating stack frame region for .param "__cudaparmf1__Z16intersectionPlan5Rayon6float3S0_" from 0x4 to 0x1c
GPGPU-Sim PTX: allocating stack frame region for .param "__cudaparmf2__Z16intersectionPlan5Rayon6float3S0_" from 0x1c to 0x28
GPGPU-Sim PTX: allocating stack frame region for .param "__cudaparmf3__Z16intersectionPlan5Rayon6float3S0_" from 0x28 to 0x34
GPGPU-Sim PTX: allocating stack frame region for .param "__cudaretf__Z10getNormale6float3S_" from 0x0 to 0xc
GPGPU-Sim PTX: allocating stack frame region for .param "__cudaparmf1__Z10getNormale6float3S_" from 0xc to 0x18
GPGPU-Sim PTX: allocating stack frame region for .param "__cudaparmf2__Z10getNormale6float3S_" from 0x18 to 0x24
GPGPU-Sim PTX: allocating stack frame region for .param "__cudaretf__Z11getNormaleP6float3" from 0x0 to 0xc
GPGPU-Sim PTX: allocating stack frame region for .param "__cudaparmf1__Z11getNormaleP6float3" from 0xc to 0x18
GPGPU-Sim PTX: allocating stack frame region for .param "__cudaretf__Z14rgbaFloatToInt6float4" from 0x0 to 0x4
GPGPU-Sim PTX: allocating stack frame region for .param "__cudaparmf1__Z14rgbaFloatToInt6float4" from 0x4 to 0x14
GPGPU-Sim PTX: allocating stack frame region for .param "__cudaretf__Z12notShadowRayP4Node6float3S1_f" from 0x0 to 0x4
GPGPU-Sim PTX: allocating stack frame region for .param "__cudaparmf1__Z12notShadowRayP4Node6float3S1_f" from 0x4 to 0xc
GPGPU-Sim PTX: allocating stack frame region for .param "__cudaparmf2__Z12notShadowRayP4Node6float3S1_f" from 0xc to 0x18
GPGPU-Sim PTX: allocating stack frame region for .param "__cudaparmf3__Z12notShadowRayP4Node6float3S1_f" from 0x18 to 0x24
GPGPU-Sim PTX: allocating stack frame region for .param "__cudaparmf4__Z12notShadowRayP4Node6float3S1_f" from 0x24 to 0x28
GPGPU-Sim PTX: allocating stack frame region for .param "__cudaretf__Z15float2int_pow20f" from 0x0 to 0x4
GPGPU-Sim PTX: allocating stack frame region for .param "__cudaparmf1__Z15float2int_pow20f" from 0x4 to 0x8
GPGPU-Sim PTX: allocating stack frame region for .param "__cudaretf__Z15float2int_pow50f" from 0x0 to 0x4
GPGPU-Sim PTX: allocating stack frame region for .param "__cudaparmf1__Z15float2int_pow50f" from 0x4 to 0x8
GPGPU-Sim PTX: allocating stack frame region for .param "__cudaparmf1__ZN4dim3C1Ejjj" from 0x0 to 0x8
GPGPU-Sim PTX: allocating stack frame region for .param "__cudaparmf2__ZN4dim3C1Ejjj" from 0x8 to 0xc
GPGPU-Sim PTX: allocating stack frame region for .param "__cudaparmf3__ZN4dim3C1Ejjj" from 0xc to 0x10
GPGPU-Sim PTX: allocating stack frame region for .param "__cudaparmf4__ZN4dim3C1Ejjj" from 0x10 to 0x14
GPGPU-Sim PTX: instruction assembly for function '_Zmi6float3S_'...   done.
GPGPU-Sim PTX: finding reconvergence points for '_Zmi6float3S_'...
GPGPU-Sim PTX: Finding dominators for '_Zmi6float3S_'...
GPGPU-Sim PTX: Finding immediate dominators for '_Zmi6float3S_'...
GPGPU-Sim PTX: Finding postdominators for '_Zmi6float3S_'...
GPGPU-Sim PTX: Finding immediate postdominators for '_Zmi6float3S_'...
GPGPU-Sim PTX: pre-decoding instructions for '_Zmi6float3S_'...
GPGPU-Sim PTX: reconvergence points for _Zmi6float3S_...
GPGPU-Sim PTX: ... end of reconvergence points for _Zmi6float3S_
GPGPU-Sim PTX: ... done pre-decoding instructions for '_Zmi6float3S_'.
GPGPU-Sim PTX: instruction assembly for function '_Z9normalize6float3'...   done.
GPGPU-Sim PTX: finding reconvergence points for '_Z9normalize6float3'...
GPGPU-Sim PTX: Finding dominators for '_Z9normalize6float3'...
GPGPU-Sim PTX: Finding immediate dominators for '_Z9normalize6float3'...
GPGPU-Sim PTX: Finding postdominators for '_Z9normalize6float3'...
GPGPU-Sim PTX: Finding immediate postdominators for '_Z9normalize6float3'...
GPGPU-Sim PTX: pre-decoding instructions for '_Z9normalize6float3'...
GPGPU-Sim PTX: reconvergence points for _Z9normalize6float3...
GPGPU-Sim PTX: ... end of reconvergence points for _Z9normalize6float3
GPGPU-Sim PTX: ... done pre-decoding instructions for '_Z9normalize6float3'.
GPGPU-Sim PTX: instruction assembly for function '_Z18intersectionSphere5Rayon6float3f'...   done.
GPGPU-Sim PTX: finding reconvergence points for '_Z18intersectionSphere5Rayon6float3f'...
GPGPU-Sim PTX: Finding dominators for '_Z18intersectionSphere5Rayon6float3f'...
GPGPU-Sim PTX: Finding immediate dominators for '_Z18intersectionSphere5Rayon6float3f'...
GPGPU-Sim PTX: Finding postdominators for '_Z18intersectionSphere5Rayon6float3f'...
GPGPU-Sim PTX: Finding immediate postdominators for '_Z18intersectionSphere5Rayon6float3f'...
GPGPU-Sim PTX: pre-decoding instructions for '_Z18intersectionSphere5Rayon6float3f'...
GPGPU-Sim PTX: reconvergence points for _Z18intersectionSphere5Rayon6float3f...
GPGPU-Sim PTX:  1 (potential) branch divergence @  PC=0x250 (_1.ptx:173) @%p2 bra $Lt_2_3074;
GPGPU-Sim PTX:    immediate post dominator      @  PC=0x2c0 (_1.ptx:193) mov.f32 %f39, %f32;
GPGPU-Sim PTX:  2 (potential) branch divergence @  PC=0x260 (_1.ptx:175) bra.uni $Lt_2_2818;
GPGPU-Sim PTX:    immediate post dominator      @  PC=0x2c0 (_1.ptx:193) mov.f32 %f39, %f32;
GPGPU-Sim PTX:  3 (potential) branch divergence @  PC=0x280 (_1.ptx:180) @!%p3 bra $Lt_2_3586;
GPGPU-Sim PTX:    immediate post dominator      @  PC=0x2c0 (_1.ptx:193) mov.f32 %f39, %f32;
GPGPU-Sim PTX:  4 (potential) branch divergence @  PC=0x290 (_1.ptx:182) bra.uni $Lt_2_3330;
GPGPU-Sim PTX:    immediate post dominator      @  PC=0x2c0 (_1.ptx:193) mov.f32 %f39, %f32;
GPGPU-Sim PTX: ... end of reconvergence points for _Z18intersectionSphere5Rayon6float3f
GPGPU-Sim PTX: ... done pre-decoding instructions for '_Z18intersectionSphere5Rayon6float3f'.
GPGPU-Sim PTX: instruction assembly for function '_Z16intersectionPlan5Rayon6float3S0_'...   done.
GPGPU-Sim PTX: finding reconvergence points for '_Z16intersectionPlan5Rayon6float3S0_'...
GPGPU-Sim PTX: Finding dominators for '_Z16intersectionPlan5Rayon6float3S0_'...
GPGPU-Sim PTX: Finding immediate dominators for '_Z16intersectionPlan5Rayon6float3S0_'...
GPGPU-Sim PTX: Finding postdominators for '_Z16intersectionPlan5Rayon6float3S0_'...
GPGPU-Sim PTX: Finding immediate postdominators for '_Z16intersectionPlan5Rayon6float3S0_'...
GPGPU-Sim PTX: pre-decoding instructions for '_Z16intersectionPlan5Rayon6float3S0_'...
GPGPU-Sim PTX: reconvergence points for _Z16intersectionPlan5Rayon6float3S0_...
GPGPU-Sim PTX:  1 (potential) branch divergence @  PC=0x320 (_1.ptx:214) @!%p1 bra $Lt_3_2050;
GPGPU-Sim PTX:    immediate post dominator      @  PC=0x368 (_1.ptx:227) mov.f32 %f14, %f9;
GPGPU-Sim PTX:  2 (potential) branch divergence @  PC=0x330 (_1.ptx:216) bra.uni $Lt_3_1794;
GPGPU-Sim PTX:    immediate post dominator      @  PC=0x368 (_1.ptx:227) mov.f32 %f14, %f9;
GPGPU-Sim PTX: ... end of reconvergence points for _Z16intersectionPlan5Rayon6float3S0_
GPGPU-Sim PTX: ... done pre-decoding instructions for '_Z16intersectionPlan5Rayon6float3S0_'.
GPGPU-Sim PTX: instruction assembly for function '_Z10getNormale6float3S_'...   done.
GPGPU-Sim PTX: finding reconvergence points for '_Z10getNormale6float3S_'...
GPGPU-Sim PTX: Finding dominators for '_Z10getNormale6float3S_'...
GPGPU-Sim PTX: Finding immediate dominators for '_Z10getNormale6float3S_'...
GPGPU-Sim PTX: Finding postdominators for '_Z10getNormale6float3S_'...
GPGPU-Sim PTX: Finding immediate postdominators for '_Z10getNormale6float3S_'...
GPGPU-Sim PTX: pre-decoding instructions for '_Z10getNormale6float3S_'...
GPGPU-Sim PTX: reconvergence points for _Z10getNormale6float3S_...
GPGPU-Sim PTX: ... end of reconvergence points for _Z10getNormale6float3S_
GPGPU-Sim PTX: ... done pre-decoding instructions for '_Z10getNormale6float3S_'.
GPGPU-Sim PTX: instruction assembly for function '_Z11getNormaleP6float3'...   done.
GPGPU-Sim PTX: finding reconvergence points for '_Z11getNormaleP6float3'...
GPGPU-Sim PTX: Finding dominators for '_Z11getNormaleP6float3'...
GPGPU-Sim PTX: Finding immediate dominators for '_Z11getNormaleP6float3'...
GPGPU-Sim PTX: Finding postdominators for '_Z11getNormaleP6float3'...
GPGPU-Sim PTX: Finding immediate postdominators for '_Z11getNormaleP6float3'...
GPGPU-Sim PTX: pre-decoding instructions for '_Z11getNormaleP6float3'...
GPGPU-Sim PTX: reconvergence points for _Z11getNormaleP6float3...
GPGPU-Sim PTX: ... end of reconvergence points for _Z11getNormaleP6float3
GPGPU-Sim PTX: ... done pre-decoding instructions for '_Z11getNormaleP6float3'.
GPGPU-Sim PTX: instruction assembly for function '_Z14rgbaFloatToInt6float4'...   done.
GPGPU-Sim PTX: finding reconvergence points for '_Z14rgbaFloatToInt6float4'...
GPGPU-Sim PTX: Finding dominators for '_Z14rgbaFloatToInt6float4'...
GPGPU-Sim PTX: Finding immediate dominators for '_Z14rgbaFloatToInt6float4'...
GPGPU-Sim PTX: Finding postdominators for '_Z14rgbaFloatToInt6float4'...
GPGPU-Sim PTX: Finding immediate postdominators for '_Z14rgbaFloatToInt6float4'...
GPGPU-Sim PTX: pre-decoding instructions for '_Z14rgbaFloatToInt6float4'...
GPGPU-Sim PTX: reconvergence points for _Z14rgbaFloatToInt6float4...
GPGPU-Sim PTX: ... end of reconvergence points for _Z14rgbaFloatToInt6float4
GPGPU-Sim PTX: ... done pre-decoding instructions for '_Z14rgbaFloatToInt6float4'.
GPGPU-Sim PTX: allocating global region for "cnode" from 0x100 to 0x1a0 (global memory space)
GPGPU-Sim PTX: instruction assembly for function '_Z12notShadowRayP4Node6float3S1_f'...   done.
GPGPU-Sim PTX: finding reconvergence points for '_Z12notShadowRayP4Node6float3S1_f'...
GPGPU-Sim PTX: Finding dominators for '_Z12notShadowRayP4Node6float3S1_f'...
GPGPU-Sim PTX: Finding immediate dominators for '_Z12notShadowRayP4Node6float3S1_f'...
GPGPU-Sim PTX: Finding postdominators for '_Z12notShadowRayP4Node6float3S1_f'...
GPGPU-Sim PTX: Finding immediate postdominators for '_Z12notShadowRayP4Node6float3S1_f'...
GPGPU-Sim PTX: pre-decoding instructions for '_Z12notShadowRayP4Node6float3S1_f'...
GPGPU-Sim PTX: reconvergence points for _Z12notShadowRayP4Node6float3S1_f...
GPGPU-Sim PTX:  1 (potential) branch divergence @  PC=0x638 (_1.ptx:364) @%p1 bra $Lt_7_8450;
GPGPU-Sim PTX:    immediate post dominator      @  PC=0x828 (_1.ptx:441) mov.f32 %f58, 0f00000000;    // 0
GPGPU-Sim PTX:  2 (potential) branch divergence @  PC=0x658 (_1.ptx:369) @!%p2 bra $Lt_7_8962;
GPGPU-Sim PTX:    immediate post dominator      @  PC=0x6b8 (_1.ptx:385) mov.f32 %f28, %f20;
GPGPU-Sim PTX:  3 (potential) branch divergence @  PC=0x668 (_1.ptx:371) bra.uni $Lt_7_8706;
GPGPU-Sim PTX:    immediate post dominator      @  PC=0x6b8 (_1.ptx:385) mov.f32 %f28, %f20;
GPGPU-Sim PTX:  4 (potential) branch divergence @  PC=0x6c0 (_1.ptx:386) bra.uni $Lt_7_8194;
GPGPU-Sim PTX:    immediate post dominator      @  PC=0x828 (_1.ptx:441) mov.f32 %f58, 0f00000000;    // 0
GPGPU-Sim PTX:  5 (potential) branch divergence @  PC=0x7b0 (_1.ptx:418) @%p5 bra $Lt_7_9474;
GPGPU-Sim PTX:    immediate post dominator      @  PC=0x820 (_1.ptx:438) mov.f32 %f28, %f51;
GPGPU-Sim PTX:  6 (potential) branch divergence @  PC=0x7c0 (_1.ptx:420) bra.uni $Lt_7_9730;
GPGPU-Sim PTX:    immediate post dominator      @  PC=0x820 (_1.ptx:438) mov.f32 %f28, %f51;
GPGPU-Sim PTX:  7 (potential) branch divergence @  PC=0x7e0 (_1.ptx:425) @!%p6 bra $Lt_7_9986;
GPGPU-Sim PTX:    immediate post dominator      @  PC=0x820 (_1.ptx:438) mov.f32 %f28, %f51;
GPGPU-Sim PTX:  8 (potential) branch divergence @  PC=0x7f0 (_1.ptx:427) bra.uni $Lt_7_9730;
GPGPU-Sim PTX:    immediate post dominator      @  PC=0x820 (_1.ptx:438) mov.f32 %f28, %f51;
GPGPU-Sim PTX:  9 (potential) branch divergence @  PC=0x838 (_1.ptx:443) @!%p7 bra $Lt_7_10242;
GPGPU-Sim PTX:    immediate post dominator      @  PC=0x8e8 (_1.ptx:468) add.s32 %r1, %r1, 1;
GPGPU-Sim PTX: 10 (potential) branch divergence @  PC=0x8d8 (_1.ptx:463) @!%p8 bra $Lt_7_10242;
GPGPU-Sim PTX:    immediate post dominator      @  PC=0x8e8 (_1.ptx:468) add.s32 %r1, %r1, 1;
GPGPU-Sim PTX: 11 (potential) branch divergence @  PC=0x908 (_1.ptx:472) @%p9 bra $Lt_7_10754;
GPGPU-Sim PTX:    immediate post dominator      @  PC=0x960 (_1.ptx:486) selp.s32 %r10, 1, 0, %p11;
GPGPU-Sim PTX: 12 (potential) branch divergence @  PC=0x930 (_1.ptx:477) @%p10 bra $L_7_7170;
GPGPU-Sim PTX:    immediate post dominator      @  PC=0x960 (_1.ptx:486) selp.s32 %r10, 1, 0, %p11;
GPGPU-Sim PTX: 13 (potential) branch divergence @  PC=0x938 (_1.ptx:478) bra.uni $L_7_7938;
GPGPU-Sim PTX:    immediate post dominator      @  PC=0x960 (_1.ptx:486) selp.s32 %r10, 1, 0, %p11;
GPGPU-Sim PTX: ... end of reconvergence points for _Z12notShadowRayP4Node6float3S1_f
GPGPU-Sim PTX: ... done pre-decoding instructions for '_Z12notShadowRayP4Node6float3S1_f'.
GPGPU-Sim PTX: instruction assembly for function '_Z15float2int_pow20f'...   done.
GPGPU-Sim PTX: finding reconvergence points for '_Z15float2int_pow20f'...
GPGPU-Sim PTX: Finding dominators for '_Z15float2int_pow20f'...
GPGPU-Sim PTX: Finding immediate dominators for '_Z15float2int_pow20f'...
GPGPU-Sim PTX: Finding postdominators for '_Z15float2int_pow20f'...
GPGPU-Sim PTX: Finding immediate postdominators for '_Z15float2int_pow20f'...
GPGPU-Sim PTX: pre-decoding instructions for '_Z15float2int_pow20f'...
GPGPU-Sim PTX: reconvergence points for _Z15float2int_pow20f...
GPGPU-Sim PTX: ... end of reconvergence points for _Z15float2int_pow20f
GPGPU-Sim PTX: ... done pre-decoding instructions for '_Z15float2int_pow20f'.
GPGPU-Sim PTX: instruction assembly for function '_Z15float2int_pow50f'...   done.
GPGPU-Sim PTX: finding reconvergence points for '_Z15float2int_pow50f'...
GPGPU-Sim PTX: Finding dominators for '_Z15float2int_pow50f'...
GPGPU-Sim PTX: Finding immediate dominators for '_Z15float2int_pow50f'...
GPGPU-Sim PTX: Finding postdominators for '_Z15float2int_pow50f'...
GPGPU-Sim PTX: Finding immediate postdominators for '_Z15float2int_pow50f'...
GPGPU-Sim PTX: pre-decoding instructions for '_Z15float2int_pow50f'...
GPGPU-Sim PTX: reconvergence points for _Z15float2int_pow50f...
GPGPU-Sim PTX: ... end of reconvergence points for _Z15float2int_pow50f
GPGPU-Sim PTX: ... done pre-decoding instructions for '_Z15float2int_pow50f'.
GPGPU-Sim PTX: allocating constant region for "MView" from 0x200 to 0x230 (global memory space) 1
GPGPU-Sim PTX: allocating stack frame region for .local "__cuda___cuda_local_var_35463_9_non_const_pile_32240" from 0x0 to 0x50
GPGPU-Sim PTX: instruction assembly for function '_Z6renderPjP4Nodejjff'...   done.
GPGPU-Sim PTX: finding reconvergence points for '_Z6renderPjP4Nodejjff'...
GPGPU-Sim PTX: Finding dominators for '_Z6renderPjP4Nodejjff'...
GPGPU-Sim PTX: Finding immediate dominators for '_Z6renderPjP4Nodejjff'...
GPGPU-Sim PTX: Finding postdominators for '_Z6renderPjP4Nodejjff'...
GPGPU-Sim PTX: Finding immediate postdominators for '_Z6renderPjP4Nodejjff'...
GPGPU-Sim PTX: pre-decoding instructions for '_Z6renderPjP4Nodejjff'...
GPGPU-Sim PTX: reconvergence points for _Z6renderPjP4Nodejjff...
GPGPU-Sim PTX:  1 (potential) branch divergence @  PC=0xdb0 (_1.ptx:663) @%p1 bra $Lt_10_44034;
GPGPU-Sim PTX:    immediate post dominator      @  PC=0x2370 (_1.ptx:1495) exit;
GPGPU-Sim PTX:  2 (potential) branch divergence @  PC=0x1028 (_1.ptx:751) @%p2 bra $Lt_10_45570;
GPGPU-Sim PTX:    immediate post dominator      @  PC=0x11b8 (_1.ptx:815) mov.f32 %f108, 0f00000000;   // 0
GPGPU-Sim PTX:  3 (potential) branch divergence @  PC=0x1048 (_1.ptx:756) @!%p3 bra $Lt_10_46082;
GPGPU-Sim PTX:    immediate post dominator      @  PC=0x1090 (_1.ptx:769) mov.f32 %f87, %f82;
GPGPU-Sim PTX:  4 (potential) branch divergence @  PC=0x1058 (_1.ptx:758) bra.uni $Lt_10_45826;
GPGPU-Sim PTX:    immediate post dominator      @  PC=0x1090 (_1.ptx:769) mov.f32 %f87, %f82;
GPGPU-Sim PTX:  5 (potential) branch divergence @  PC=0x1098 (_1.ptx:770) bra.uni $Lt_10_45314;
GPGPU-Sim PTX:    immediate post dominator      @  PC=0x11b8 (_1.ptx:815) mov.f32 %f108, 0f00000000;   // 0
GPGPU-Sim PTX:  6 (potential) branch divergence @  PC=0x1140 (_1.ptx:793) @%p6 bra $Lt_10_46594;
GPGPU-Sim PTX:    immediate post dominator      @  PC=0x11b0 (_1.ptx:813) mov.f32 %f87, %f101;
GPGPU-Sim PTX:  7 (potential) branch divergence @  PC=0x1150 (_1.ptx:795) bra.uni $Lt_10_46850;
GPGPU-Sim PTX:    immediate post dominator      @  PC=0x11b0 (_1.ptx:813) mov.f32 %f87, %f101;
GPGPU-Sim PTX:  8 (potential) branch divergence @  PC=0x1170 (_1.ptx:800) @!%p7 bra $Lt_10_47106;
GPGPU-Sim PTX:    immediate post dominator      @  PC=0x11b0 (_1.ptx:813) mov.f32 %f87, %f101;
GPGPU-Sim PTX:  9 (potential) branch divergence @  PC=0x1180 (_1.ptx:802) bra.uni $Lt_10_46850;
GPGPU-Sim PTX:    immediate post dominator      @  PC=0x11b0 (_1.ptx:813) mov.f32 %f87, %f101;
GPGPU-Sim PTX: 10 (potential) branch divergence @  PC=0x11f8 (_1.ptx:823) @%p8 bra $Lt_10_47362;
GPGPU-Sim PTX:    immediate post dominator      @  PC=0x1210 (_1.ptx:829) add.s32 %r25, %r25, 1;
GPGPU-Sim PTX: 11 (potential) branch divergence @  PC=0x1230 (_1.ptx:833) @%p9 bra $Lt_10_45058;
GPGPU-Sim PTX:    immediate post dominator      @  PC=0x1238 (_1.ptx:834) mov.f32 %f109, 0f00000000;   // 0
GPGPU-Sim PTX: 12 (potential) branch divergence @  PC=0x1280 (_1.ptx:843) @%p10 bra $Lt_10_48130;
GPGPU-Sim PTX:    immediate post dominator      @  PC=0x2140 (_1.ptx:1416) add.s32 %r23, %r23, 1;
GPGPU-Sim PTX: 13 (potential) branch divergence @  PC=0x1330 (_1.ptx:868) @%p11 bra $Lt_10_48898;
GPGPU-Sim PTX:    immediate post dominator      @  PC=0x13b8 (_1.ptx:888) sub.f32 %f136, %f21, %f119;
GPGPU-Sim PTX: 14 (potential) branch divergence @  PC=0x1350 (_1.ptx:873) bra.uni $Lt_10_48642;
GPGPU-Sim PTX:    immediate post dominator      @  PC=0x13b8 (_1.ptx:888) sub.f32 %f136, %f21, %f119;
GPGPU-Sim PTX: 15 (potential) branch divergence @  PC=0x1430 (_1.ptx:903) @!%p12 bra $Lt_10_49410;
GPGPU-Sim PTX:    immediate post dominator      @  PC=0x1470 (_1.ptx:915) mov.f32 %f153, 0f3d4ccccd;   // 0.05
GPGPU-Sim PTX: 16 (potential) branch divergence @  PC=0x1450 (_1.ptx:908) bra.uni $Lt_10_49154;
GPGPU-Sim PTX:    immediate post dominator      @  PC=0x1470 (_1.ptx:915) mov.f32 %f153, 0f3d4ccccd;   // 0.05
GPGPU-Sim PTX: 17 (potential) branch divergence @  PC=0x1578 (_1.ptx:949) @!%p13 bra $Lt_10_58114;
GPGPU-Sim PTX:    immediate post dominator      @  PC=0x2080 (_1.ptx:1388) add.f32 %f399, %f126, %f126;
GPGPU-Sim PTX: 18 (potential) branch divergence @  PC=0x15c0 (_1.ptx:961) @%p14 bra $Lt_10_49922;
GPGPU-Sim PTX:    immediate post dominator      @  PC=0x17b0 (_1.ptx:1039) mov.f32 %f221, 0f00000000;   // 0
GPGPU-Sim PTX: 19 (potential) branch divergence @  PC=0x15e0 (_1.ptx:966) @!%p15 bra $Lt_10_50434;
GPGPU-Sim PTX:    immediate post dominator      @  PC=0x1638 (_1.ptx:982) mov.f32 %f190, %f183;
GPGPU-Sim PTX: 20 (potential) branch divergence @  PC=0x15f0 (_1.ptx:968) bra.uni $Lt_10_50178;
GPGPU-Sim PTX:    immediate post dominator      @  PC=0x1638 (_1.ptx:982) mov.f32 %f190, %f183;
GPGPU-Sim PTX: 21 (potential) branch divergence @  PC=0x1640 (_1.ptx:983) bra.uni $Lt_10_49666;
GPGPU-Sim PTX:    immediate post dominator      @  PC=0x17b0 (_1.ptx:1039) mov.f32 %f221, 0f00000000;   // 0
GPGPU-Sim PTX: 22 (potential) branch divergence @  PC=0x1738 (_1.ptx:1016) @%p18 bra $Lt_10_50946;
GPGPU-Sim PTX:    immediate post dominator      @  PC=0x17a8 (_1.ptx:1036) mov.f32 %f190, %f214;
GPGPU-Sim PTX: 23 (potential) branch divergence @  PC=0x1748 (_1.ptx:1018) bra.uni $Lt_10_51202;
GPGPU-Sim PTX:    immediate post dominator      @  PC=0x17a8 (_1.ptx:1036) mov.f32 %f190, %f214;
GPGPU-Sim PTX: 24 (potential) branch divergence @  PC=0x1768 (_1.ptx:1023) @!%p19 bra $Lt_10_51458;
GPGPU-Sim PTX:    immediate post dominator      @  PC=0x17a8 (_1.ptx:1036) mov.f32 %f190, %f214;
GPGPU-Sim PTX: 25 (potential) branch divergence @  PC=0x1778 (_1.ptx:1025) bra.uni $Lt_10_51202;
GPGPU-Sim PTX:    immediate post dominator      @  PC=0x17a8 (_1.ptx:1036) mov.f32 %f190, %f214;
GPGPU-Sim PTX: 26 (potential) branch divergence @  PC=0x17c0 (_1.ptx:1041) @!%p20 bra $Lt_10_58370;
GPGPU-Sim PTX:    immediate post dominator      @  PC=0x1828 (_1.ptx:1057) add.s32 %r50, %r50, 1;
GPGPU-Sim PTX: 27 (potential) branch divergence @  PC=0x1818 (_1.ptx:1052) @!%p21 bra $Lt_10_58370;
GPGPU-Sim PTX:    immediate post dominator      @  PC=0x1828 (_1.ptx:1057) add.s32 %r50, %r50, 1;
GPGPU-Sim PTX: 28 (potential) branch divergence @  PC=0x1848 (_1.ptx:1061) @%p22 bra $Lt_10_58882;
GPGPU-Sim PTX:    immediate post dominator      @  PC=0x1880 (_1.ptx:1071) @!%p23 bra $Lt_10_58114;
GPGPU-Sim PTX: 29 (potential) branch divergence @  PC=0x1860 (_1.ptx:1064) @%p23 bra $L_10_42498;
GPGPU-Sim PTX:    immediate post dominator      @  PC=0x1880 (_1.ptx:1071) @!%p23 bra $Lt_10_58114;
GPGPU-Sim PTX: 30 (potential) branch divergence @  PC=0x1868 (_1.ptx:1065) bra.uni $L_10_43266;
GPGPU-Sim PTX:    immediate post dominator      @  PC=0x1880 (_1.ptx:1071) @!%p23 bra $Lt_10_58114;
GPGPU-Sim PTX: 31 (potential) branch divergence @  PC=0x1880 (_1.ptx:1071) @!%p23 bra $Lt_10_58114;
GPGPU-Sim PTX:    immediate post dominator      @  PC=0x2080 (_1.ptx:1388) add.f32 %f399, %f126, %f126;
GPGPU-Sim PTX: 32 (potential) branch divergence @  PC=0x19c8 (_1.ptx:1115) @!%p24 bra $Lt_10_51714;
GPGPU-Sim PTX:    immediate post dominator      @  PC=0x2040 (_1.ptx:1375) mov.f32 %f394, 0f3f4ccccd;   // 0.8
GPGPU-Sim PTX: 33 (potential) branch divergence @  PC=0x19d8 (_1.ptx:1118) bra.uni $LDWendi___isnanf_192_1;
GPGPU-Sim PTX:    immediate post dominator      @  PC=0x2040 (_1.ptx:1375) mov.f32 %f394, 0f3f4ccccd;   // 0.8
GPGPU-Sim PTX: 34 (potential) branch divergence @  PC=0x19f8 (_1.ptx:1124) @!%p25 bra $Lt_10_7682;
GPGPU-Sim PTX:    immediate post dominator      @  PC=0x2040 (_1.ptx:1375) mov.f32 %f394, 0f3f4ccccd;   // 0.8
GPGPU-Sim PTX: 35 (potential) branch divergence @  PC=0x1a00 (_1.ptx:1125) bra.uni $Lt_10_7938;
GPGPU-Sim PTX:    immediate post dominator      @  PC=0x1a20 (_1.ptx:1133) mov.f32 %f272, 0f7f800000;   // ((1.0F)/(0.0F))
GPGPU-Sim PTX: 36 (potential) branch divergence @  PC=0x1a18 (_1.ptx:1130) bra.uni $LDWendi___isnanf_192_1;
GPGPU-Sim PTX:    immediate post dominator      @  PC=0x2040 (_1.ptx:1375) mov.f32 %f394, 0f3f4ccccd;   // 0.8
GPGPU-Sim PTX: 37 (potential) branch divergence @  PC=0x1a30 (_1.ptx:1135) @!%p26 bra $Lt_10_52226;
GPGPU-Sim PTX:    immediate post dominator      @  PC=0x2040 (_1.ptx:1375) mov.f32 %f394, 0f3f4ccccd;   // 0.8
GPGPU-Sim PTX: 38 (potential) branch divergence @  PC=0x1a40 (_1.ptx:1138) bra.uni $LDWendi___isnanf_192_1;
GPGPU-Sim PTX:    immediate post dominator      @  PC=0x2040 (_1.ptx:1375) mov.f32 %f394, 0f3f4ccccd;   // 0.8
GPGPU-Sim PTX: 39 (potential) branch divergence @  PC=0x1a58 (_1.ptx:1142) @!%p27 bra $Lt_10_52738;
GPGPU-Sim PTX:    immediate post dominator      @  PC=0x2040 (_1.ptx:1375) mov.f32 %f394, 0f3f4ccccd;   // 0.8
GPGPU-Sim PTX: 40 (potential) branch divergence @  PC=0x1ab8 (_1.ptx:1155) bra.uni $LDWendi___isnanf_192_1;
GPGPU-Sim PTX:    immediate post dominator      @  PC=0x2040 (_1.ptx:1375) mov.f32 %f394, 0f3f4ccccd;   // 0.8
GPGPU-Sim PTX: 41 (potential) branch divergence @  PC=0x1ad0 (_1.ptx:1159) @!%p29 bra $Lt_10_53250;
GPGPU-Sim PTX:    immediate post dominator      @  PC=0x2040 (_1.ptx:1375) mov.f32 %f394, 0f3f4ccccd;   // 0.8
GPGPU-Sim PTX: 42 (potential) branch divergence @  PC=0x1b20 (_1.ptx:1170) @!%p30 bra $Lt_10_53762;
GPGPU-Sim PTX:    immediate post dominator      @  PC=0x1b40 (_1.ptx:1177) mov.f32 %f268, %f284;
GPGPU-Sim PTX: 43 (potential) branch divergence @  PC=0x1b48 (_1.ptx:1178) bra.uni $LDWendi___isnanf_192_1;
GPGPU-Sim PTX:    immediate post dominator      @  PC=0x2040 (_1.ptx:1375) mov.f32 %f394, 0f3f4ccccd;   // 0.8
GPGPU-Sim PTX: 44 (potential) branch divergence @  PC=0x1b60 (_1.ptx:1183) @!%p31 bra $Lt_10_59394;
GPGPU-Sim PTX:    immediate post dominator      @  PC=0x2040 (_1.ptx:1375) mov.f32 %f394, 0f3f4ccccd;   // 0.8
GPGPU-Sim PTX: 45 (potential) branch divergence @  PC=0x1b88 (_1.ptx:1188) @!%p32 bra $Lt_10_59394;
GPGPU-Sim PTX:    immediate post dominator      @  PC=0x2040 (_1.ptx:1375) mov.f32 %f394, 0f3f4ccccd;   // 0.8
GPGPU-Sim PTX: 46 (potential) branch divergence @  PC=0x1ba0 (_1.ptx:1192) bra.uni $LDWendi___isnanf_192_1;
GPGPU-Sim PTX:    immediate post dominator      @  PC=0x2040 (_1.ptx:1375) mov.f32 %f394, 0f3f4ccccd;   // 0.8
GPGPU-Sim PTX: 47 (potential) branch divergence @  PC=0x1bd8 (_1.ptx:1202) @%p33 bra $Lt_10_54530;
GPGPU-Sim PTX:    immediate post dominator      @  PC=0x1c20 (_1.ptx:1216) sub.s32 %r64, %r64, 127;
GPGPU-Sim PTX: 48 (potential) branch divergence @  PC=0x1c10 (_1.ptx:1211) bra.uni $Lt_10_54274;
GPGPU-Sim PTX:    immediate post dominator      @  PC=0x1c20 (_1.ptx:1216) sub.s32 %r64, %r64, 127;
GPGPU-Sim PTX: 49 (potential) branch divergence @  PC=0x1c58 (_1.ptx:1224) @!%p34 bra $Lt_10_54786;
GPGPU-Sim PTX:    immediate post dominator      @  PC=0x1c78 (_1.ptx:1232) mov.f32 %f302, 0fbf800000;   // -1
GPGPU-Sim PTX: 50 (potential) branch divergence @  PC=0x1eb0 (_1.ptx:1312) @%p35 bra $Lt_10_55298;
GPGPU-Sim PTX:    immediate post dominator      @  PC=0x1ed8 (_1.ptx:1321) mov.f32 %f367, %f365;
GPGPU-Sim PTX: 51 (potential) branch divergence @  PC=0x1f98 (_1.ptx:1346) @!%p38 bra $Lt_10_55810;
GPGPU-Sim PTX:    immediate post dominator      @  PC=0x1fa8 (_1.ptx:1351) mov.f32 %f284, %f386;
GPGPU-Sim PTX: 52 (potential) branch divergence @  PC=0x2018 (_1.ptx:1365) @%p39 bra $Lt_10_56322;
GPGPU-Sim PTX:    immediate post dominator      @  PC=0x2038 (_1.ptx:1372) mov.f32 %f268, %f284;
GPGPU-Sim PTX: 53 (potential) branch divergence @  PC=0x2158 (_1.ptx:1419) @%p40 bra $L_10_42242;
GPGPU-Sim PTX:    immediate post dominator      @  PC=0x2170 (_1.ptx:1424) sub.s32 %r86, %r24, 1;
GPGPU-Sim PTX: 54 (potential) branch divergence @  PC=0x2168 (_1.ptx:1421) @%p41 bra $L_10_41474;
GPGPU-Sim PTX:    immediate post dominator      @  PC=0x2170 (_1.ptx:1424) sub.s32 %r86, %r24, 1;
GPGPU-Sim PTX: 55 (potential) branch divergence @  PC=0x2190 (_1.ptx:1428) @%p42 bra $Lt_10_56834;
GPGPU-Sim PTX:    immediate post dominator      @  PC=0x2288 (_1.ptx:1464) ld.global.u32 %r92, [%rd4+0];
GPGPU-Sim PTX: 56 (potential) branch divergence @  PC=0x2280 (_1.ptx:1461) @%p43 bra $Lt_10_57346;
GPGPU-Sim PTX:    immediate post dominator      @  PC=0x2288 (_1.ptx:1464) ld.global.u32 %r92, [%rd4+0];
GPGPU-Sim PTX: ... end of reconvergence points for _Z6renderPjP4Nodejjff
GPGPU-Sim PTX: ... done pre-decoding instructions for '_Z6renderPjP4Nodejjff'.
GPGPU-Sim PTX: instruction assembly for function '_ZN4dim3C1Ejjj'...   done.
GPGPU-Sim PTX: finding reconvergence points for '_ZN4dim3C1Ejjj'...
GPGPU-Sim PTX: Finding dominators for '_ZN4dim3C1Ejjj'...
GPGPU-Sim PTX: Finding immediate dominators for '_ZN4dim3C1Ejjj'...
GPGPU-Sim PTX: Finding postdominators for '_ZN4dim3C1Ejjj'...
GPGPU-Sim PTX: Finding immediate postdominators for '_ZN4dim3C1Ejjj'...
GPGPU-Sim PTX: pre-decoding instructions for '_ZN4dim3C1Ejjj'...
GPGPU-Sim PTX: reconvergence points for _ZN4dim3C1Ejjj...
GPGPU-Sim PTX: ... end of reconvergence points for _ZN4dim3C1Ejjj
GPGPU-Sim PTX: ... done pre-decoding instructions for '_ZN4dim3C1Ejjj'.
GPGPU-Sim PTX: finished parsing EMBEDDED .ptx file _1.ptx
Adding _cuobjdump_1.ptx with cubin handle 1
GPGPU-Sim PTX: extracting embedded .ptx to temporary file "_ptx_yS1ezm"
Running: cat _ptx_yS1ezm | sed 's/.version 1.5/.version 1.4/' | sed 's/, texmode_independent//' | sed 's/\(\.extern \.const\[1\] .b8 \w\+\)\[\]/\1\[1\]/' | sed 's/const\[.\]/const\[0\]/g' > _ptx2_14GGE0
GPGPU-Sim PTX: generating ptxinfo using "$CUDA_INSTALL_PATH/bin/ptxas --gpu-name=sm_20 -v _ptx2_14GGE0 --output-file  /dev/null 2> _ptx_yS1ezminfo"
GPGPU-Sim PTX: Kernel '_Z6renderPjP4Nodejjff' : regs=45, lmem=4, smem=0, cmem=180
GPGPU-Sim PTX: removing ptxinfo using "rm -f _ptx_yS1ezm _ptx2_14GGE0 _ptx_yS1ezminfo"
GPGPU-Sim PTX: loading globals with explicit initializers... 
GPGPU-Sim PTX: finished loading globals (0 bytes total).
GPGPU-Sim PTX: loading constants with explicit initializers...  done.
GPGPU-Sim PTX: __cudaRegisterVar: hostVar = 0x62fda0; deviceAddress = MView; deviceName = MView
GPGPU-Sim PTX: __cudaRegisterVar: Registering const memory space of 48 bytes
GPGPU-Sim PTX registering constant MView (48 bytes) to name mapping
GPGPU-Sim PTX: __cudaRegisterVar: hostVar = 0x62fde0; deviceAddress = cnode; deviceName = cnode
GPGPU-Sim PTX: __cudaRegisterVar: Registering const memory space of 160 bytes
GPGPU-Sim PTX registering constant cnode (160 bytes) to name mapping
GPGPU-Sim PTX: cudaMemcpyToSymbol: symbol = 0x62fde0
GPGPU-Sim PTX: starting gpgpu_ptx_sim_memcpy_symbol with hostVar 0x0x62fde0
GPGPU-Sim PTX: gpgpu_ptx_sim_memcpy_symbol: Found PTX symbol w/ hostVar=0x62fde0
GPGPU-Sim PTX: gpgpu_ptx_sim_memcpy_symbol: copying const memory 160 bytes  to  symbol cnode+0 @0x100 ...
GPGPU-Sim PTX: cudaMemcpyToSymbol: symbol = 0x62fda0
GPGPU-Sim PTX: starting gpgpu_ptx_sim_memcpy_symbol with hostVar 0x0x62fda0
GPGPU-Sim PTX: gpgpu_ptx_sim_memcpy_symbol: Found PTX symbol w/ hostVar=0x62fda0
GPGPU-Sim PTX: gpgpu_ptx_sim_memcpy_symbol: copying const memory 48 bytes  to  symbol MView+0 @0x200 ...

GPGPU-Sim PTX: cudaLaunch for 0x0x40ce13 (mode=performance simulation) on stream 0
GPGPU-Sim PTX: pushing kernel '_Z6renderPjP4Nodejjff' to stream 0, gridDim= (16,32,1) blockDim = (16,8,1) 
kernel '_Z6renderPjP4Nodejjff' transfer to GPU hardware scheduler
GPGPU-Sim uArch: Shader 1 bind to kernel 1 '_Z6renderPjP4Nodejjff'
GPGPU-Sim uArch: CTA/core = 5, limited by: regs
GPGPU-Sim uArch: core:  1, cta: 0 initialized @(1,0)
GPGPU-Sim uArch: Shader 2 bind to kernel 1 '_Z6renderPjP4Nodejjff'
GPGPU-Sim uArch: core:  2, cta: 0 initialized @(1,0)
GPGPU-Sim uArch: Shader 3 bind to kernel 1 '_Z6renderPjP4Nodejjff'
GPGPU-Sim uArch: core:  3, cta: 0 initialized @(1,0)
GPGPU-Sim uArch: Shader 4 bind to kernel 1 '_Z6renderPjP4Nodejjff'
GPGPU-Sim uArch: core:  4, cta: 0 initialized @(1,0)
GPGPU-Sim uArch: Shader 5 bind to kernel 1 '_Z6renderPjP4Nodejjff'
GPGPU-Sim uArch: core:  5, cta: 0 initialized @(1,0)
GPGPU-Sim uArch: Shader 6 bind to kernel 1 '_Z6renderPjP4Nodejjff'
GPGPU-Sim uArch: core:  6, cta: 0 initialized @(1,0)
GPGPU-Sim uArch: Shader 7 bind to kernel 1 '_Z6renderPjP4Nodejjff'
GPGPU-Sim uArch: core:  7, cta: 0 initialized @(1,0)
GPGPU-Sim uArch: Shader 8 bind to kernel 1 '_Z6renderPjP4Nodejjff'
GPGPU-Sim uArch: core:  8, cta: 0 initialized @(1,0)
GPGPU-Sim uArch: Shader 9 bind to kernel 1 '_Z6renderPjP4Nodejjff'
GPGPU-Sim uArch: core:  9, cta: 0 initialized @(1,0)
GPGPU-Sim uArch: Shader 10 bind to kernel 1 '_Z6renderPjP4Nodejjff'
GPGPU-Sim uArch: core: 10, cta: 0 initialized @(1,0)
GPGPU-Sim uArch: Shader 11 bind to kernel 1 '_Z6renderPjP4Nodejjff'
GPGPU-Sim uArch: core: 11, cta: 0 initialized @(1,0)
GPGPU-Sim uArch: Shader 12 bind to kernel 1 '_Z6renderPjP4Nodejjff'
GPGPU-Sim uArch: core: 12, cta: 0 initialized @(1,0)
GPGPU-Sim uArch: Shader 13 bind to kernel 1 '_Z6renderPjP4Nodejjff'
GPGPU-Sim uArch: core: 13, cta: 0 initialized @(1,0)
GPGPU-Sim uArch: Shader 14 bind to kernel 1 '_Z6renderPjP4Nodejjff'
GPGPU-Sim uArch: core: 14, cta: 0 initialized @(1,0)
GPGPU-Sim uArch: Shader 0 bind to kernel 1 '_Z6renderPjP4Nodejjff'
GPGPU-Sim uArch: core:  0, cta: 0 initialized @(1,0)
GPGPU-Sim uArch: core:  1, cta: 1 initialized @(2,0)
GPGPU-Sim uArch: core:  2, cta: 1 initialized @(2,0)
GPGPU-Sim uArch: core:  3, cta: 1 initialized @(2,0)
GPGPU-Sim uArch: core:  4, cta: 1 initialized @(2,0)
GPGPU-Sim uArch: core:  5, cta: 1 initialized @(2,0)
GPGPU-Sim uArch: core:  6, cta: 1 initialized @(2,0)
GPGPU-Sim uArch: core:  7, cta: 1 initialized @(2,0)
GPGPU-Sim uArch: core:  8, cta: 1 initialized @(2,0)
GPGPU-Sim uArch: core:  9, cta: 1 initialized @(2,0)
GPGPU-Sim uArch: core: 10, cta: 1 initialized @(2,0)
GPGPU-Sim uArch: core: 11, cta: 1 initialized @(2,0)
GPGPU-Sim uArch: core: 12, cta: 1 initialized @(2,0)
GPGPU-Sim uArch: core: 13, cta: 1 initialized @(2,0)
GPGPU-Sim uArch: core: 14, cta: 1 initialized @(2,0)
GPGPU-Sim uArch: core:  0, cta: 1 initialized @(2,0)
GPGPU-Sim uArch: core:  1, cta: 2 initialized @(3,0)
GPGPU-Sim uArch: core:  2, cta: 2 initialized @(3,0)
GPGPU-Sim uArch: core:  3, cta: 2 initialized @(3,0)
GPGPU-Sim uArch: core:  4, cta: 2 initialized @(3,0)
GPGPU-Sim uArch: core:  5, cta: 2 initialized @(3,0)
GPGPU-Sim uArch: core:  6, cta: 2 initialized @(3,0)
GPGPU-Sim uArch: core:  7, cta: 2 initialized @(3,0)
GPGPU-Sim uArch: core:  8, cta: 2 initialized @(3,0)
GPGPU-Sim uArch: core:  9, cta: 2 initialized @(3,0)
GPGPU-Sim uArch: core: 10, cta: 2 initialized @(3,0)
GPGPU-Sim uArch: core: 11, cta: 2 initialized @(3,0)
GPGPU-Sim uArch: core: 12, cta: 2 initialized @(3,0)
GPGPU-Sim uArch: core: 13, cta: 2 initialized @(3,0)
GPGPU-Sim uArch: core: 14, cta: 2 initialized @(3,0)
GPGPU-Sim uArch: core:  0, cta: 2 initialized @(3,0)
GPGPU-Sim uArch: core:  1, cta: 3 initialized @(4,0)
GPGPU-Sim uArch: core:  2, cta: 3 initialized @(4,0)
GPGPU-Sim uArch: core:  3, cta: 3 initialized @(4,0)
GPGPU-Sim uArch: core:  4, cta: 3 initialized @(4,0)
GPGPU-Sim uArch: core:  5, cta: 3 initialized @(4,0)
GPGPU-Sim uArch: core:  6, cta: 3 initialized @(4,0)
GPGPU-Sim uArch: core:  7, cta: 3 initialized @(4,0)
GPGPU-Sim uArch: core:  8, cta: 3 initialized @(4,0)
GPGPU-Sim uArch: core:  9, cta: 3 initialized @(4,0)
GPGPU-Sim uArch: core: 10, cta: 3 initialized @(4,0)
GPGPU-Sim uArch: core: 11, cta: 3 initialized @(4,0)
GPGPU-Sim uArch: core: 12, cta: 3 initialized @(4,0)
GPGPU-Sim uArch: core: 13, cta: 3 initialized @(4,0)
GPGPU-Sim uArch: core: 14, cta: 3 initialized @(4,0)
GPGPU-Sim uArch: core:  0, cta: 3 initialized @(4,0)
GPGPU-Sim uArch: core:  1, cta: 4 initialized @(5,0)
GPGPU-Sim uArch: core:  2, cta: 4 initialized @(5,0)
GPGPU-Sim uArch: core:  3, cta: 4 initialized @(5,0)
GPGPU-Sim uArch: core:  4, cta: 4 initialized @(5,0)
GPGPU-Sim uArch: core:  5, cta: 4 initialized @(5,0)
GPGPU-Sim uArch: core:  6, cta: 4 initialized @(5,0)
GPGPU-Sim uArch: core:  7, cta: 4 initialized @(5,0)
GPGPU-Sim uArch: core:  8, cta: 4 initialized @(5,0)
GPGPU-Sim uArch: core:  9, cta: 4 initialized @(5,0)
GPGPU-Sim uArch: core: 10, cta: 4 initialized @(5,0)
GPGPU-Sim uArch: core: 11, cta: 4 initialized @(5,0)
GPGPU-Sim uArch: core: 12, cta: 4 initialized @(5,0)
GPGPU-Sim uArch: core: 13, cta: 4 initialized @(5,0)
GPGPU-Sim uArch: core: 14, cta: 4 initialized @(5,0)
GPGPU-Sim uArch: core:  0, cta: 4 initialized @(5,0)
GPGPU-Sim uArch: cycles simulated: 500  inst.: 36032 (ipc=72.1) sim_rate=18016 (inst/sec) elapsed = 0:0:00:02 / Sun Feb 28 21:36:16 2016
GPGPU-Sim PTX: 100000 instructions simulated : ctaid=(9,0,0) tid=(15,1,0)
GPGPU-Sim uArch: cycles simulated: 3000  inst.: 140608 (ipc=46.9) sim_rate=46869 (inst/sec) elapsed = 0:0:00:03 / Sun Feb 28 21:36:17 2016
GPGPU-Sim PTX: 200000 instructions simulated : ctaid=(2,0,0) tid=(15,5,0)
GPGPU-Sim PTX: 300000 instructions simulated : ctaid=(7,0,0) tid=(15,5,0)
GPGPU-Sim uArch: cycles simulated: 5000  inst.: 323424 (ipc=64.7) sim_rate=80856 (inst/sec) elapsed = 0:0:00:04 / Sun Feb 28 21:36:18 2016
GPGPU-Sim PTX: 400000 instructions simulated : ctaid=(4,0,0) tid=(15,1,0)
GPGPU-Sim PTX: 500000 instructions simulated : ctaid=(0,3,0) tid=(15,5,0)
GPGPU-Sim PTX: 600000 instructions simulated : ctaid=(1,1,0) tid=(15,5,0)
GPGPU-Sim uArch: cycles simulated: 6500  inst.: 606592 (ipc=93.3) sim_rate=121318 (inst/sec) elapsed = 0:0:00:05 / Sun Feb 28 21:36:19 2016
GPGPU-Sim PTX: 700000 instructions simulated : ctaid=(0,0,0) tid=(15,7,0)
GPGPU-Sim PTX: 800000 instructions simulated : ctaid=(2,3,0) tid=(15,7,0)
GPGPU-Sim PTX: 900000 instructions simulated : ctaid=(3,2,0) tid=(15,7,0)
GPGPU-Sim PTX: 1000000 instructions simulated : ctaid=(0,4,0) tid=(15,3,0)
GPGPU-Sim PTX: 1100000 instructions simulated : ctaid=(2,4,0) tid=(15,3,0)
GPGPU-Sim uArch: cycles simulated: 8500  inst.: 1127840 (ipc=132.7) sim_rate=187973 (inst/sec) elapsed = 0:0:00:06 / Sun Feb 28 21:36:20 2016
GPGPU-Sim PTX: 1200000 instructions simulated : ctaid=(12,3,0) tid=(15,5,0)
GPGPU-Sim PTX: 1300000 instructions simulated : ctaid=(4,1,0) tid=(15,1,0)
GPGPU-Sim PTX: 1400000 instructions simulated : ctaid=(3,2,0) tid=(15,7,0)
GPGPU-Sim PTX: 1500000 instructions simulated : ctaid=(11,2,0) tid=(15,3,0)
GPGPU-Sim uArch: cycles simulated: 9500  inst.: 1552352 (ipc=163.4) sim_rate=221764 (inst/sec) elapsed = 0:0:00:07 / Sun Feb 28 21:36:21 2016
GPGPU-Sim PTX: 1600000 instructions simulated : ctaid=(10,1,0) tid=(15,7,0)
GPGPU-Sim PTX: 1700000 instructions simulated : ctaid=(6,2,0) tid=(15,5,0)
GPGPU-Sim PTX: 1800000 instructions simulated : ctaid=(0,0,0) tid=(15,7,0)
GPGPU-Sim PTX: 1900000 instructions simulated : ctaid=(7,0,0) tid=(15,5,0)
GPGPU-Sim PTX: 2000000 instructions simulated : ctaid=(6,2,0) tid=(15,1,0)
GPGPU-Sim PTX: 2100000 instructions simulated : ctaid=(15,1,0) tid=(15,7,0)
GPGPU-Sim PTX: 2200000 instructions simulated : ctaid=(11,1,0) tid=(15,5,0)
GPGPU-Sim PTX: 2300000 instructions simulated : ctaid=(12,1,0) tid=(15,1,0)
GPGPU-Sim uArch: cycles simulated: 10500  inst.: 2282176 (ipc=217.4) sim_rate=285272 (inst/sec) elapsed = 0:0:00:08 / Sun Feb 28 21:36:22 2016
GPGPU-Sim PTX: 2400000 instructions simulated : ctaid=(8,2,0) tid=(15,5,0)
GPGPU-Sim PTX: 2500000 instructions simulated : ctaid=(15,1,0) tid=(15,5,0)
GPGPU-Sim PTX: 2600000 instructions simulated : ctaid=(11,2,0) tid=(15,1,0)
GPGPU-Sim PTX: 2700000 instructions simulated : ctaid=(9,2,0) tid=(15,3,0)
GPGPU-Sim PTX: 2800000 instructions simulated : ctaid=(10,3,0) tid=(15,1,0)
GPGPU-Sim PTX: 2900000 instructions simulated : ctaid=(15,1,0) tid=(15,3,0)
GPGPU-Sim PTX: 3000000 instructions simulated : ctaid=(1,4,0) tid=(15,5,0)
GPGPU-Sim uArch: cycles simulated: 11500  inst.: 3000032 (ipc=260.9) sim_rate=333336 (inst/sec) elapsed = 0:0:00:09 / Sun Feb 28 21:36:23 2016
GPGPU-Sim PTX: 3100000 instructions simulated : ctaid=(14,1,0) tid=(15,5,0)
GPGPU-Sim PTX: 3200000 instructions simulated : ctaid=(10,3,0) tid=(15,7,0)
GPGPU-Sim PTX: 3300000 instructions simulated : ctaid=(5,3,0) tid=(15,3,0)
GPGPU-Sim PTX: 3400000 instructions simulated : ctaid=(7,4,0) tid=(15,5,0)
GPGPU-Sim PTX: 3500000 instructions simulated : ctaid=(10,2,0) tid=(15,3,0)
GPGPU-Sim uArch: cycles simulated: 12500  inst.: 3461312 (ipc=276.9) sim_rate=346131 (inst/sec) elapsed = 0:0:00:10 / Sun Feb 28 21:36:24 2016
GPGPU-Sim PTX: 3600000 instructions simulated : ctaid=(3,0,0) tid=(15,3,0)
GPGPU-Sim PTX: 3700000 instructions simulated : ctaid=(9,0,0) tid=(15,5,0)
GPGPU-Sim PTX: 3800000 instructions simulated : ctaid=(12,2,0) tid=(15,5,0)
GPGPU-Sim PTX: 3900000 instructions simulated : ctaid=(1,3,0) tid=(15,1,0)
GPGPU-Sim uArch: cycles simulated: 13500  inst.: 3826752 (ipc=283.5) sim_rate=347886 (inst/sec) elapsed = 0:0:00:11 / Sun Feb 28 21:36:25 2016
GPGPU-Sim PTX: 4000000 instructions simulated : ctaid=(0,2,0) tid=(15,1,0)
GPGPU-Sim PTX: 4100000 instructions simulated : ctaid=(15,1,0) tid=(15,3,0)
GPGPU-Sim PTX: 4200000 instructions simulated : ctaid=(11,1,0) tid=(15,3,0)
GPGPU-Sim PTX: 4300000 instructions simulated : ctaid=(14,1,0) tid=(15,1,0)
GPGPU-Sim PTX: 4400000 instructions simulated : ctaid=(0,2,0) tid=(15,5,0)
GPGPU-Sim uArch: cycles simulated: 15000  inst.: 4309920 (ipc=287.3) sim_rate=359160 (inst/sec) elapsed = 0:0:00:12 / Sun Feb 28 21:36:26 2016
GPGPU-Sim PTX: 4500000 instructions simulated : ctaid=(15,3,0) tid=(15,3,0)
GPGPU-Sim PTX: 4600000 instructions simulated : ctaid=(13,0,0) tid=(8,0,0)
GPGPU-Sim PTX: 4700000 instructions simulated : ctaid=(15,1,0) tid=(13,1,0)
GPGPU-Sim PTX: 4800000 instructions simulated : ctaid=(14,0,0) tid=(15,4,0)
GPGPU-Sim PTX: 4900000 instructions simulated : ctaid=(0,4,0) tid=(15,4,0)
GPGPU-Sim PTX: 5000000 instructions simulated : ctaid=(15,2,0) tid=(15,2,0)
GPGPU-Sim uArch: cycles simulated: 16000  inst.: 4916240 (ipc=307.3) sim_rate=378172 (inst/sec) elapsed = 0:0:00:13 / Sun Feb 28 21:36:27 2016
GPGPU-Sim PTX: 5100000 instructions simulated : ctaid=(13,0,0) tid=(15,0,0)
GPGPU-Sim PTX: 5200000 instructions simulated : ctaid=(10,1,0) tid=(15,2,0)
GPGPU-Sim PTX: 5300000 instructions simulated : ctaid=(11,2,0) tid=(15,4,0)
GPGPU-Sim PTX: 5400000 instructions simulated : ctaid=(10,1,0) tid=(15,6,0)
GPGPU-Sim PTX: 5500000 instructions simulated : ctaid=(1,0,0) tid=(12,5,0)
GPGPU-Sim PTX: 5600000 instructions simulated : ctaid=(11,0,0) tid=(1,7,0)
GPGPU-Sim PTX: 5700000 instructions simulated : ctaid=(10,4,0) tid=(1,4,0)
GPGPU-Sim PTX: 5800000 instructions simulated : ctaid=(6,3,0) tid=(15,6,0)
GPGPU-Sim uArch: cycles simulated: 17000  inst.: 5666337 (ipc=333.3) sim_rate=404738 (inst/sec) elapsed = 0:0:00:14 / Sun Feb 28 21:36:28 2016
GPGPU-Sim PTX: 5900000 instructions simulated : ctaid=(9,0,0) tid=(12,0,0)
GPGPU-Sim PTX: 6000000 instructions simulated : ctaid=(1,4,0) tid=(15,2,0)
GPGPU-Sim PTX: 6100000 instructions simulated : ctaid=(11,0,0) tid=(11,7,0)
GPGPU-Sim PTX: 6200000 instructions simulated : ctaid=(8,3,0) tid=(11,7,0)
GPGPU-Sim uArch: cycles simulated: 18000  inst.: 6088580 (ipc=338.3) sim_rate=405905 (inst/sec) elapsed = 0:0:00:15 / Sun Feb 28 21:36:29 2016
GPGPU-Sim PTX: 6300000 instructions simulated : ctaid=(1,2,0) tid=(11,5,0)
GPGPU-Sim PTX: 6400000 instructions simulated : ctaid=(11,2,0) tid=(11,1,0)
GPGPU-Sim PTX: 6500000 instructions simulated : ctaid=(13,3,0) tid=(11,6,0)
GPGPU-Sim PTX: 6600000 instructions simulated : ctaid=(2,3,0) tid=(11,1,0)
GPGPU-Sim uArch: cycles simulated: 20000  inst.: 6505636 (ipc=325.3) sim_rate=406602 (inst/sec) elapsed = 0:0:00:16 / Sun Feb 28 21:36:30 2016
GPGPU-Sim PTX: 6700000 instructions simulated : ctaid=(10,1,0) tid=(11,5,0)
GPGPU-Sim PTX: 6800000 instructions simulated : ctaid=(1,3,0) tid=(11,7,0)
GPGPU-Sim PTX: 6900000 instructions simulated : ctaid=(15,0,0) tid=(11,7,0)
GPGPU-Sim PTX: 7000000 instructions simulated : ctaid=(9,1,0) tid=(11,1,0)
GPGPU-Sim PTX: 7100000 instructions simulated : ctaid=(11,3,0) tid=(11,1,0)
GPGPU-Sim uArch: cycles simulated: 21000  inst.: 6944644 (ipc=330.7) sim_rate=408508 (inst/sec) elapsed = 0:0:00:17 / Sun Feb 28 21:36:31 2016
GPGPU-Sim PTX: 7200000 instructions simulated : ctaid=(8,3,0) tid=(11,3,0)
GPGPU-Sim PTX: 7300000 instructions simulated : ctaid=(5,3,0) tid=(11,5,0)
GPGPU-Sim PTX: 7400000 instructions simulated : ctaid=(15,1,0) tid=(11,7,0)
GPGPU-Sim PTX: 7500000 instructions simulated : ctaid=(12,2,0) tid=(11,7,0)
GPGPU-Sim PTX: 7600000 instructions simulated : ctaid=(10,0,0) tid=(11,3,0)
GPGPU-Sim uArch: cycles simulated: 22500  inst.: 7411236 (ipc=329.4) sim_rate=411735 (inst/sec) elapsed = 0:0:00:18 / Sun Feb 28 21:36:32 2016
GPGPU-Sim PTX: 7700000 instructions simulated : ctaid=(3,0,0) tid=(11,7,0)
GPGPU-Sim PTX: 7800000 instructions simulated : ctaid=(12,0,0) tid=(11,7,0)
GPGPU-Sim PTX: 7900000 instructions simulated : ctaid=(12,2,0) tid=(11,3,0)
GPGPU-Sim PTX: 8000000 instructions simulated : ctaid=(7,3,0) tid=(11,1,0)
GPGPU-Sim PTX: 8100000 instructions simulated : ctaid=(8,3,0) tid=(11,3,0)
GPGPU-Sim uArch: cycles simulated: 24000  inst.: 7959652 (ipc=331.7) sim_rate=418929 (inst/sec) elapsed = 0:0:00:19 / Sun Feb 28 21:36:33 2016
GPGPU-Sim PTX: 8200000 instructions simulated : ctaid=(10,4,0) tid=(11,1,0)
GPGPU-Sim PTX: 8300000 instructions simulated : ctaid=(2,1,0) tid=(11,5,0)
GPGPU-Sim PTX: 8400000 instructions simulated : ctaid=(2,1,0) tid=(11,7,0)
GPGPU-Sim PTX: 8500000 instructions simulated : ctaid=(0,3,0) tid=(11,1,0)
GPGPU-Sim PTX: 8600000 instructions simulated : ctaid=(4,1,0) tid=(0,1,0)
GPGPU-Sim PTX: 8700000 instructions simulated : ctaid=(3,0,0) tid=(5,4,0)
GPGPU-Sim uArch: cycles simulated: 25000  inst.: 8527838 (ipc=341.1) sim_rate=426391 (inst/sec) elapsed = 0:0:00:20 / Sun Feb 28 21:36:34 2016
GPGPU-Sim PTX: 8800000 instructions simulated : ctaid=(7,2,0) tid=(1,0,0)
GPGPU-Sim PTX: 8900000 instructions simulated : ctaid=(5,0,0) tid=(11,3,0)
GPGPU-Sim PTX: 9000000 instructions simulated : ctaid=(8,0,0) tid=(11,1,0)
GPGPU-Sim PTX: 9100000 instructions simulated : ctaid=(8,3,0) tid=(1,2,0)
GPGPU-Sim PTX: 9200000 instructions simulated : ctaid=(3,2,0) tid=(3,7,0)
GPGPU-Sim PTX: 9300000 instructions simulated : ctaid=(14,1,0) tid=(1,0,0)
GPGPU-Sim PTX: 9400000 instructions simulated : ctaid=(14,0,0) tid=(11,1,0)
GPGPU-Sim PTX: 9500000 instructions simulated : ctaid=(15,1,0) tid=(10,1,0)
GPGPU-Sim uArch: cycles simulated: 26000  inst.: 9329987 (ipc=358.8) sim_rate=444285 (inst/sec) elapsed = 0:0:00:21 / Sun Feb 28 21:36:35 2016
GPGPU-Sim PTX: 9600000 instructions simulated : ctaid=(5,1,0) tid=(3,7,0)
GPGPU-Sim PTX: 9700000 instructions simulated : ctaid=(14,0,0) tid=(10,1,0)
GPGPU-Sim PTX: 9800000 instructions simulated : ctaid=(3,0,0) tid=(9,4,0)
GPGPU-Sim PTX: 9900000 instructions simulated : ctaid=(13,3,0) tid=(15,3,0)
GPGPU-Sim PTX: 10000000 instructions simulated : ctaid=(15,3,0) tid=(14,7,0)
GPGPU-Sim PTX: 10100000 instructions simulated : ctaid=(9,1,0) tid=(13,1,0)
GPGPU-Sim uArch: cycles simulated: 27000  inst.: 9832799 (ipc=364.2) sim_rate=446945 (inst/sec) elapsed = 0:0:00:22 / Sun Feb 28 21:36:36 2016
GPGPU-Sim PTX: 10200000 instructions simulated : ctaid=(13,2,0) tid=(13,5,0)
GPGPU-Sim PTX: 10300000 instructions simulated : ctaid=(11,3,0) tid=(14,7,0)
GPGPU-Sim PTX: 10400000 instructions simulated : ctaid=(4,1,0) tid=(7,5,0)
GPGPU-Sim uArch: Shader 0 finished CTA #0 (28272,0), 4 CTAs running
GPGPU-Sim uArch: core:  0, cta: 0 initialized @(28273,0)
GPGPU-Sim uArch: Shader 0 finished CTA #1 (28290,0), 4 CTAs running
GPGPU-Sim uArch: core:  0, cta: 1 initialized @(28291,0)
GPGPU-Sim uArch: Shader 6 finished CTA #2 (28308,0), 4 CTAs running
GPGPU-Sim uArch: core:  6, cta: 2 initialized @(28309,0)
GPGPU-Sim uArch: Shader 4 finished CTA #1 (28341,0), 4 CTAs running
GPGPU-Sim uArch: core:  4, cta: 1 initialized @(28342,0)
GPGPU-Sim uArch: Shader 0 finished CTA #2 (28346,0), 4 CTAs running
GPGPU-Sim uArch: core:  0, cta: 2 initialized @(28347,0)
GPGPU-Sim uArch: Shader 1 finished CTA #1 (28350,0), 4 CTAs running
GPGPU-Sim uArch: core:  1, cta: 1 initialized @(28351,0)
GPGPU-Sim uArch: Shader 0 finished CTA #3 (28354,0), 4 CTAs running
GPGPU-Sim uArch: core:  0, cta: 3 initialized @(28355,0)
GPGPU-Sim uArch: Shader 4 finished CTA #2 (28356,0), 4 CTAs running
GPGPU-Sim uArch: core:  4, cta: 2 initialized @(28357,0)
GPGPU-Sim uArch: Shader 6 finished CTA #3 (28369,0), 4 CTAs running
GPGPU-Sim uArch: core:  6, cta: 3 initialized @(28370,0)
GPGPU-Sim uArch: Shader 0 finished CTA #4 (28372,0), 4 CTAs running
GPGPU-Sim uArch: core:  0, cta: 4 initialized @(28373,0)
GPGPU-Sim uArch: Shader 9 finished CTA #3 (28374,0), 4 CTAs running
GPGPU-Sim uArch: core:  9, cta: 3 initialized @(28375,0)
GPGPU-Sim uArch: Shader 2 finished CTA #1 (28378,0), 4 CTAs running
GPGPU-Sim uArch: core:  2, cta: 1 initialized @(28379,0)
GPGPU-Sim uArch: Shader 3 finished CTA #0 (28382,0), 4 CTAs running
GPGPU-Sim uArch: core:  3, cta: 0 initialized @(28383,0)
GPGPU-Sim uArch: Shader 9 finished CTA #4 (28390,0), 4 CTAs running
GPGPU-Sim uArch: core:  9, cta: 4 initialized @(28391,0)
GPGPU-Sim uArch: Shader 2 finished CTA #4 (28402,0), 4 CTAs running
GPGPU-Sim uArch: core:  2, cta: 4 initialized @(28403,0)
GPGPU-Sim uArch: Shader 6 finished CTA #4 (28412,0), 4 CTAs running
GPGPU-Sim uArch: core:  6, cta: 4 initialized @(28413,0)
GPGPU-Sim uArch: Shader 2 finished CTA #0 (28416,0), 4 CTAs running
GPGPU-Sim uArch: core:  2, cta: 0 initialized @(28417,0)
GPGPU-Sim uArch: Shader 4 finished CTA #3 (28420,0), 4 CTAs running
GPGPU-Sim uArch: core:  4, cta: 3 initialized @(28421,0)
GPGPU-Sim uArch: Shader 2 finished CTA #2 (28426,0), 4 CTAs running
GPGPU-Sim uArch: core:  2, cta: 2 initialized @(28427,0)
GPGPU-Sim uArch: Shader 14 finished CTA #0 (28436,0), 4 CTAs running
GPGPU-Sim uArch: core: 14, cta: 0 initialized @(28437,0)
GPGPU-Sim uArch: Shader 1 finished CTA #0 (28446,0), 4 CTAs running
GPGPU-Sim uArch: core:  1, cta: 0 initialized @(28447,0)
GPGPU-Sim uArch: Shader 3 finished CTA #1 (28450,0), 4 CTAs running
GPGPU-Sim uArch: core:  3, cta: 1 initialized @(28451,0)
GPGPU-Sim uArch: Shader 1 finished CTA #2 (28454,0), 4 CTAs running
GPGPU-Sim uArch: Shader 4 finished CTA #4 (28454,0), 4 CTAs running
GPGPU-Sim uArch: core:  4, cta: 4 initialized @(28455,0)
GPGPU-Sim uArch: core:  1, cta: 2 initialized @(28455,0)
GPGPU-Sim uArch: Shader 8 finished CTA #2 (28458,0), 4 CTAs running
GPGPU-Sim uArch: core:  8, cta: 2 initialized @(28459,0)
GPGPU-Sim uArch: Shader 1 finished CTA #3 (28462,0), 4 CTAs running
GPGPU-Sim uArch: core:  1, cta: 3 initialized @(28463,0)
GPGPU-Sim uArch: Shader 8 finished CTA #3 (28466,0), 4 CTAs running
GPGPU-Sim uArch: core:  8, cta: 3 initialized @(28467,0)
GPGPU-Sim uArch: Shader 1 finished CTA #4 (28470,0), 4 CTAs running
GPGPU-Sim uArch: core:  1, cta: 4 initialized @(28471,0)
GPGPU-Sim uArch: Shader 3 finished CTA #2 (28482,0), 4 CTAs running
GPGPU-Sim uArch: core:  3, cta: 2 initialized @(28483,0)
GPGPU-Sim uArch: Shader 8 finished CTA #4 (28488,0), 4 CTAs running
GPGPU-Sim uArch: core:  8, cta: 4 initialized @(28489,0)
GPGPU-Sim uArch: Shader 3 finished CTA #4 (28493,0), 4 CTAs running
GPGPU-Sim uArch: core:  3, cta: 4 initialized @(28494,0)
GPGPU-Sim uArch: cycles simulated: 28500  inst.: 10225754 (ipc=358.8) sim_rate=444598 (inst/sec) elapsed = 0:0:00:23 / Sun Feb 28 21:36:37 2016
GPGPU-Sim PTX: 10500000 instructions simulated : ctaid=(6,3,0) tid=(10,3,0)
GPGPU-Sim uArch: Shader 5 finished CTA #2 (28509,0), 4 CTAs running
GPGPU-Sim uArch: core:  5, cta: 2 initialized @(28510,0)
GPGPU-Sim uArch: Shader 3 finished CTA #3 (28514,0), 4 CTAs running
GPGPU-Sim uArch: core:  3, cta: 3 initialized @(28515,0)
GPGPU-Sim uArch: Shader 2 finished CTA #3 (28518,0), 4 CTAs running
GPGPU-Sim uArch: core:  2, cta: 3 initialized @(28519,0)
GPGPU-Sim uArch: Shader 5 finished CTA #3 (28529,0), 4 CTAs running
GPGPU-Sim uArch: core:  5, cta: 3 initialized @(28530,0)
GPGPU-Sim uArch: Shader 7 finished CTA #3 (28532,0), 4 CTAs running
GPGPU-Sim uArch: core:  7, cta: 3 initialized @(28533,0)
GPGPU-Sim uArch: Shader 5 finished CTA #4 (28534,0), 4 CTAs running
GPGPU-Sim uArch: core:  5, cta: 4 initialized @(28535,0)
GPGPU-Sim uArch: Shader 7 finished CTA #4 (28539,0), 4 CTAs running
GPGPU-Sim uArch: core:  7, cta: 4 initialized @(28540,0)
GPGPU-Sim uArch: Shader 10 finished CTA #4 (28626,0), 4 CTAs running
GPGPU-Sim uArch: core: 10, cta: 4 initialized @(28627,0)
GPGPU-Sim PTX: 10600000 instructions simulated : ctaid=(10,0,0) tid=(5,2,0)
GPGPU-Sim PTX: 10700000 instructions simulated : ctaid=(5,6,0) tid=(4,1,0)
GPGPU-Sim PTX: 10800000 instructions simulated : ctaid=(9,4,0) tid=(2,5,0)
GPGPU-Sim uArch: cycles simulated: 29500  inst.: 10523045 (ipc=356.7) sim_rate=438460 (inst/sec) elapsed = 0:0:00:24 / Sun Feb 28 21:36:38 2016
GPGPU-Sim PTX: 10900000 instructions simulated : ctaid=(7,2,0) tid=(9,0,0)
GPGPU-Sim PTX: 11000000 instructions simulated : ctaid=(13,5,0) tid=(2,1,0)
GPGPU-Sim PTX: 11100000 instructions simulated : ctaid=(7,4,0) tid=(11,7,0)
GPGPU-Sim PTX: 11200000 instructions simulated : ctaid=(11,5,0) tid=(12,1,0)
GPGPU-Sim uArch: cycles simulated: 30500  inst.: 10952996 (ipc=359.1) sim_rate=438119 (inst/sec) elapsed = 0:0:00:25 / Sun Feb 28 21:36:39 2016
GPGPU-Sim PTX: 11300000 instructions simulated : ctaid=(7,6,0) tid=(8,4,0)
GPGPU-Sim PTX: 11400000 instructions simulated : ctaid=(15,5,0) tid=(13,6,0)
GPGPU-Sim PTX: 11500000 instructions simulated : ctaid=(9,4,0) tid=(6,6,0)
GPGPU-Sim PTX: 11600000 instructions simulated : ctaid=(4,1,0) tid=(13,6,0)
GPGPU-Sim PTX: 11700000 instructions simulated : ctaid=(9,6,0) tid=(1,3,0)
GPGPU-Sim uArch: cycles simulated: 31500  inst.: 11488811 (ipc=364.7) sim_rate=441877 (inst/sec) elapsed = 0:0:00:26 / Sun Feb 28 21:36:40 2016
GPGPU-Sim PTX: 11800000 instructions simulated : ctaid=(2,6,0) tid=(1,0,0)
GPGPU-Sim PTX: 11900000 instructions simulated : ctaid=(11,6,0) tid=(7,3,0)
GPGPU-Sim PTX: 12000000 instructions simulated : ctaid=(6,1,0) tid=(10,2,0)
GPGPU-Sim uArch: cycles simulated: 32000  inst.: 11777473 (ipc=368.0) sim_rate=436202 (inst/sec) elapsed = 0:0:00:27 / Sun Feb 28 21:36:41 2016
GPGPU-Sim PTX: 12100000 instructions simulated : ctaid=(7,3,0) tid=(1,7,0)
GPGPU-Sim uArch: Shader 14 finished CTA #2 (32086,0), 4 CTAs running
GPGPU-Sim uArch: core: 14, cta: 2 initialized @(32087,0)
GPGPU-Sim PTX: 12200000 instructions simulated : ctaid=(12,4,0) tid=(9,3,0)
GPGPU-Sim PTX: 12300000 instructions simulated : ctaid=(14,6,0) tid=(12,5,0)
GPGPU-Sim PTX: 12400000 instructions simulated : ctaid=(9,2,0) tid=(3,2,0)
GPGPU-Sim uArch: cycles simulated: 32500  inst.: 12097542 (ipc=372.2) sim_rate=432055 (inst/sec) elapsed = 0:0:00:28 / Sun Feb 28 21:36:42 2016
GPGPU-Sim PTX: 12500000 instructions simulated : ctaid=(9,6,0) tid=(10,1,0)
GPGPU-Sim PTX: 12600000 instructions simulated : ctaid=(7,6,0) tid=(2,4,0)
GPGPU-Sim PTX: 12700000 instructions simulated : ctaid=(11,0,0) tid=(11,2,0)
GPGPU-Sim PTX: 12800000 instructions simulated : ctaid=(5,0,0) tid=(15,4,0)
GPGPU-Sim PTX: 12900000 instructions simulated : ctaid=(7,4,0) tid=(1,2,0)
GPGPU-Sim PTX: 13000000 instructions simulated : ctaid=(4,6,0) tid=(6,6,0)
GPGPU-Sim uArch: Shader 7 finished CTA #2 (33488,0), 4 CTAs running
GPGPU-Sim uArch: core:  7, cta: 2 initialized @(33489,0)
GPGPU-Sim uArch: cycles simulated: 33500  inst.: 12717293 (ipc=379.6) sim_rate=438527 (inst/sec) elapsed = 0:0:00:29 / Sun Feb 28 21:36:43 2016
GPGPU-Sim PTX: 13100000 instructions simulated : ctaid=(9,0,0) tid=(10,2,0)
GPGPU-Sim PTX: 13200000 instructions simulated : ctaid=(2,7,0) tid=(0,7,0)
GPGPU-Sim PTX: 13300000 instructions simulated : ctaid=(7,0,0) tid=(7,2,0)
GPGPU-Sim uArch: cycles simulated: 34000  inst.: 12983992 (ipc=381.9) sim_rate=432799 (inst/sec) elapsed = 0:0:00:30 / Sun Feb 28 21:36:44 2016
GPGPU-Sim PTX: 13400000 instructions simulated : ctaid=(7,1,0) tid=(7,3,0)
GPGPU-Sim PTX: 13500000 instructions simulated : ctaid=(9,4,0) tid=(3,4,0)
GPGPU-Sim uArch: cycles simulated: 34500  inst.: 13232107 (ipc=383.5) sim_rate=426842 (inst/sec) elapsed = 0:0:00:31 / Sun Feb 28 21:36:45 2016
GPGPU-Sim PTX: 13600000 instructions simulated : ctaid=(1,5,0) tid=(6,2,0)
GPGPU-Sim PTX: 13700000 instructions simulated : ctaid=(8,0,0) tid=(2,7,0)
GPGPU-Sim PTX: 13800000 instructions simulated : ctaid=(6,0,0) tid=(10,6,0)
GPGPU-Sim PTX: 13900000 instructions simulated : ctaid=(3,6,0) tid=(1,7,0)
GPGPU-Sim PTX: 14000000 instructions simulated : ctaid=(7,1,0) tid=(14,5,0)
GPGPU-Sim PTX: 14100000 instructions simulated : ctaid=(8,3,0) tid=(5,2,0)
GPGPU-Sim uArch: cycles simulated: 35500  inst.: 13776686 (ipc=388.1) sim_rate=430521 (inst/sec) elapsed = 0:0:00:32 / Sun Feb 28 21:36:46 2016
GPGPU-Sim PTX: 14200000 instructions simulated : ctaid=(10,6,0) tid=(9,4,0)
GPGPU-Sim PTX: 14300000 instructions simulated : ctaid=(1,7,0) tid=(6,5,0)
GPGPU-Sim PTX: 14400000 instructions simulated : ctaid=(9,5,0) tid=(15,5,0)
GPGPU-Sim PTX: 14500000 instructions simulated : ctaid=(7,3,0) tid=(1,6,0)
GPGPU-Sim PTX: 14600000 instructions simulated : ctaid=(9,3,0) tid=(5,2,0)
GPGPU-Sim PTX: 14700000 instructions simulated : ctaid=(8,2,0) tid=(8,6,0)
GPGPU-Sim uArch: cycles simulated: 36500  inst.: 14351855 (ipc=393.2) sim_rate=434904 (inst/sec) elapsed = 0:0:00:33 / Sun Feb 28 21:36:47 2016
GPGPU-Sim PTX: 14800000 instructions simulated : ctaid=(7,3,0) tid=(13,0,0)
GPGPU-Sim PTX: 14900000 instructions simulated : ctaid=(7,1,0) tid=(3,6,0)
GPGPU-Sim PTX: 15000000 instructions simulated : ctaid=(1,5,0) tid=(1,5,0)
GPGPU-Sim uArch: cycles simulated: 37000  inst.: 14635415 (ipc=395.6) sim_rate=430453 (inst/sec) elapsed = 0:0:00:34 / Sun Feb 28 21:36:48 2016
GPGPU-Sim PTX: 15100000 instructions simulated : ctaid=(8,6,0) tid=(4,7,0)
GPGPU-Sim PTX: 15200000 instructions simulated : ctaid=(11,0,0) tid=(8,7,0)
GPGPU-Sim PTX: 15300000 instructions simulated : ctaid=(4,5,0) tid=(2,5,0)
GPGPU-Sim PTX: 15400000 instructions simulated : ctaid=(15,5,0) tid=(9,4,0)
GPGPU-Sim PTX: 15500000 instructions simulated : ctaid=(1,6,0) tid=(8,3,0)
GPGPU-Sim PTX: 15600000 instructions simulated : ctaid=(10,6,0) tid=(3,1,0)
GPGPU-Sim uArch: cycles simulated: 38000  inst.: 15177099 (ipc=399.4) sim_rate=433631 (inst/sec) elapsed = 0:0:00:35 / Sun Feb 28 21:36:49 2016
GPGPU-Sim PTX: 15700000 instructions simulated : ctaid=(4,1,0) tid=(6,4,0)
GPGPU-Sim PTX: 15800000 instructions simulated : ctaid=(8,0,0) tid=(14,2,0)
GPGPU-Sim uArch: cycles simulated: 38500  inst.: 15395845 (ipc=399.9) sim_rate=427662 (inst/sec) elapsed = 0:0:00:36 / Sun Feb 28 21:36:50 2016
GPGPU-Sim PTX: 15900000 instructions simulated : ctaid=(0,6,0) tid=(12,4,0)
GPGPU-Sim PTX: 16000000 instructions simulated : ctaid=(9,1,0) tid=(2,3,0)
GPGPU-Sim PTX: 16100000 instructions simulated : ctaid=(4,6,0) tid=(3,3,0)
GPGPU-Sim PTX: 16200000 instructions simulated : ctaid=(7,0,0) tid=(2,3,0)
GPGPU-Sim uArch: cycles simulated: 39500  inst.: 15810478 (ipc=400.3) sim_rate=427310 (inst/sec) elapsed = 0:0:00:37 / Sun Feb 28 21:36:51 2016
GPGPU-Sim PTX: 16300000 instructions simulated : ctaid=(12,6,0) tid=(14,6,0)
GPGPU-Sim uArch: Shader 13 finished CTA #2 (39684,0), 4 CTAs running
GPGPU-Sim uArch: core: 13, cta: 2 initialized @(39685,0)
GPGPU-Sim PTX: 16400000 instructions simulated : ctaid=(8,5,0) tid=(4,3,0)
GPGPU-Sim PTX: 16500000 instructions simulated : ctaid=(11,1,0) tid=(4,1,0)
GPGPU-Sim uArch: Shader 14 finished CTA #3 (40156,0), 4 CTAs running
GPGPU-Sim uArch: core: 14, cta: 3 initialized @(40157,0)
GPGPU-Sim PTX: 16600000 instructions simulated : ctaid=(13,6,0) tid=(8,5,0)
GPGPU-Sim PTX: 16700000 instructions simulated : ctaid=(15,6,0) tid=(7,2,0)
GPGPU-Sim uArch: cycles simulated: 40500  inst.: 16267255 (ipc=401.7) sim_rate=428085 (inst/sec) elapsed = 0:0:00:38 / Sun Feb 28 21:36:52 2016
GPGPU-Sim PTX: 16800000 instructions simulated : ctaid=(6,1,0) tid=(12,7,0)
GPGPU-Sim PTX: 16900000 instructions simulated : ctaid=(7,5,0) tid=(5,0,0)
GPGPU-Sim uArch: cycles simulated: 41000  inst.: 16509812 (ipc=402.7) sim_rate=423328 (inst/sec) elapsed = 0:0:00:39 / Sun Feb 28 21:36:53 2016
GPGPU-Sim PTX: 17000000 instructions simulated : ctaid=(6,3,0) tid=(7,5,0)
GPGPU-Sim PTX: 17100000 instructions simulated : ctaid=(8,2,0) tid=(12,1,0)
GPGPU-Sim PTX: 17200000 instructions simulated : ctaid=(4,6,0) tid=(12,0,0)
GPGPU-Sim PTX: 17300000 instructions simulated : ctaid=(9,2,0) tid=(8,2,0)
GPGPU-Sim uArch: Shader 5 finished CTA #1 (41821,0), 4 CTAs running
GPGPU-Sim uArch: core:  5, cta: 1 initialized @(41822,0)
GPGPU-Sim PTX: 17400000 instructions simulated : ctaid=(1,5,0) tid=(3,5,0)
GPGPU-Sim uArch: cycles simulated: 42000  inst.: 16992431 (ipc=404.6) sim_rate=424810 (inst/sec) elapsed = 0:0:00:40 / Sun Feb 28 21:36:54 2016
GPGPU-Sim PTX: 17500000 instructions simulated : ctaid=(15,6,0) tid=(10,6,0)
GPGPU-Sim uArch: Shader 4 finished CTA #0 (42179,0), 4 CTAs running
GPGPU-Sim uArch: core:  4, cta: 0 initialized @(42180,0)
GPGPU-Sim PTX: 17600000 instructions simulated : ctaid=(7,3,0) tid=(14,2,0)
GPGPU-Sim uArch: Shader 5 finished CTA #2 (42322,0), 4 CTAs running
GPGPU-Sim uArch: core:  5, cta: 2 initialized @(42323,0)
GPGPU-Sim uArch: Shader 5 finished CTA #3 (42466,0), 4 CTAs running
GPGPU-Sim uArch: core:  5, cta: 3 initialized @(42467,0)
GPGPU-Sim uArch: cycles simulated: 42500  inst.: 17215830 (ipc=405.1) sim_rate=419898 (inst/sec) elapsed = 0:0:00:41 / Sun Feb 28 21:36:55 2016
GPGPU-Sim PTX: 17700000 instructions simulated : ctaid=(2,7,0) tid=(7,2,0)
GPGPU-Sim PTX: 17800000 instructions simulated : ctaid=(3,7,0) tid=(11,5,0)
GPGPU-Sim PTX: 17900000 instructions simulated : ctaid=(13,4,0) tid=(2,1,0)
GPGPU-Sim uArch: Shader 5 finished CTA #4 (43135,0), 4 CTAs running
GPGPU-Sim uArch: core:  5, cta: 4 initialized @(43136,0)
GPGPU-Sim PTX: 18000000 instructions simulated : ctaid=(4,1,0) tid=(7,0,0)
GPGPU-Sim PTX: 18100000 instructions simulated : ctaid=(6,3,0) tid=(9,3,0)
GPGPU-Sim uArch: Shader 14 finished CTA #1 (43380,0), 4 CTAs running
GPGPU-Sim uArch: core: 14, cta: 1 initialized @(43381,0)
GPGPU-Sim uArch: Shader 12 finished CTA #3 (43393,0), 4 CTAs running
GPGPU-Sim uArch: core: 12, cta: 3 initialized @(43394,0)
GPGPU-Sim uArch: Shader 14 finished CTA #0 (43429,0), 4 CTAs running
GPGPU-Sim uArch: core: 14, cta: 0 initialized @(43430,0)
GPGPU-Sim uArch: cycles simulated: 43500  inst.: 17682676 (ipc=406.5) sim_rate=421016 (inst/sec) elapsed = 0:0:00:42 / Sun Feb 28 21:36:56 2016
GPGPU-Sim PTX: 18200000 instructions simulated : ctaid=(5,7,0) tid=(12,1,0)
GPGPU-Sim PTX: 18300000 instructions simulated : ctaid=(10,7,0) tid=(12,0,0)
GPGPU-Sim uArch: Shader 10 finished CTA #4 (43841,0), 4 CTAs running
GPGPU-Sim uArch: core: 10, cta: 4 initialized @(43842,0)
GPGPU-Sim PTX: 18400000 instructions simulated : ctaid=(0,6,0) tid=(7,7,0)
GPGPU-Sim uArch: Shader 11 finished CTA #4 (43935,0), 4 CTAs running
GPGPU-Sim uArch: core: 11, cta: 4 initialized @(43936,0)
GPGPU-Sim uArch: Shader 10 finished CTA #3 (43948,0), 4 CTAs running
GPGPU-Sim uArch: core: 10, cta: 3 initialized @(43949,0)
GPGPU-Sim uArch: Shader 13 finished CTA #0 (43993,0), 4 CTAs running
GPGPU-Sim uArch: core: 13, cta: 0 initialized @(43994,0)
GPGPU-Sim uArch: cycles simulated: 44000  inst.: 17952329 (ipc=408.0) sim_rate=417496 (inst/sec) elapsed = 0:0:00:43 / Sun Feb 28 21:36:57 2016
GPGPU-Sim uArch: Shader 7 finished CTA #3 (44036,0), 4 CTAs running
GPGPU-Sim uArch: core:  7, cta: 3 initialized @(44037,0)
GPGPU-Sim PTX: 18500000 instructions simulated : ctaid=(5,6,0) tid=(8,2,0)
GPGPU-Sim uArch: Shader 7 finished CTA #4 (44120,0), 4 CTAs running
GPGPU-Sim uArch: core:  7, cta: 4 initialized @(44121,0)
GPGPU-Sim uArch: Shader 13 finished CTA #1 (44177,0), 4 CTAs running
GPGPU-Sim uArch: core: 13, cta: 1 initialized @(44178,0)
GPGPU-Sim uArch: Shader 13 finished CTA #3 (44261,0), 4 CTAs running
GPGPU-Sim uArch: core: 13, cta: 3 initialized @(44262,0)
GPGPU-Sim PTX: 18600000 instructions simulated : ctaid=(13,5,0) tid=(8,5,0)
GPGPU-Sim PTX: 18700000 instructions simulated : ctaid=(13,5,0) tid=(14,6,0)
GPGPU-Sim uArch: Shader 9 finished CTA #3 (44609,0), 4 CTAs running
GPGPU-Sim uArch: core:  9, cta: 3 initialized @(44610,0)
[...]
traffic_breakdown_memtocore[INST_ACC_R] = 1771264 {136:13024,}
traffic_breakdown_memtocore[LOCAL_ACC_R] = 531760 {136:3910,}
traffic_breakdown_memtocore[LOCAL_ACC_W] = 266792 {8:33349,}
maxmrqlatency = 616 
maxdqlatency = 0 
maxmflatency = 1827 
averagemflatency = 278 
max_icnt2mem_latency = 1107 
max_icnt2sh_latency = 140104 
mrq_lat_table:8092 	691 	790 	1451 	2817 	3097 	3103 	1970 	257 	9 	0 	0 	0 	0 	0 	0 	0 	0 	0 	0 	0 	0 	0 	0 	0 	0 	0 	0 	0 	0 	0 	0 	
dq_lat_table:0 	0 	0 	0 	0 	0 	0 	0 	0 	0 	0 	0 	0 	0 	0 	0 	0 	0 	0 	0 	0 	0 	0 	0 	0 	0 	0 	0 	0 	0 	0 	0 	
mf_lat_table:0 	0 	0 	0 	0 	0 	0 	36540 	7178 	4624 	861 	0 	0 	0 	0 	0 	0 	0 	0 	0 	0 	0 	0 	0 	0 	0 	0 	0 	0 	0 	0 	0 	
icnt2mem_lat_table:0 	0 	0 	20963 	9359 	7540 	19630 	1947 	2361 	433 	4 	0 	0 	0 	0 	0 	0 	0 	0 	0 	0 	0 	0 	0 	
icnt2sh_lat_table:0 	0 	0 	1416 	2681 	2821 	730 	14 	0 	186 	497 	1395 	3086 	2636 	6108 	9936 	15454 	2243 	0 	0 	0 	0 	0 	0 	
mf_lat_pw_table:0 	0 	0 	0 	0 	0 	0 	229 	10 	16 	2 	0 	0 	0 	0 	0 	0 	0 	0 	0 	0 	0 	0 	0 	0 	0 	0 	0 	0 	0 	0 	0 	
maximum concurrent accesses to same row:
dram[0]:        54        56        36        34        26        24        36        22        44        48        45        26        22        35        20        23 
dram[1]:        52        54        34        32        20        22        31        36        32        27        27        25        57        37        36        35 
dram[2]:        62        62        54        56        30        28        25        35        28        29        33        30        81        52        22        44 
dram[3]:        58        60        54        56        24        28        35        37        41        30        39        26        14        28        20        44 
dram[4]:        62        64        56        52        32        28        35        20        24        24        77        18        38        18        20        68 
dram[5]:        58        60        56        48        26        30        23        37        28        26        31        26        65        20        23        62 
maximum service time to same row:
dram[0]:     49312     34881     56201     47377     31647     57847     73761     48444     28925     34353     44853     47257     28355     31023     70088     49959 
dram[1]:     63716     41169     53547     71094     31697     53727     48436     49155     30900     39475     58066     50793     49199     55945     49493     47095 
dram[2]:     25090     31204     50016     85205     33820     40639     46048     59828     33880     51552     47855     38214     30474     57157     55813     52568 
dram[3]:     41190     27184     26228     47275     40340     53369     45269     47228     37244     48234     37469     45642     37182     30706     46837     47125 
dram[4]:     36440     42579     68922     48482     37000     45759     47316     47419     32590     31129     59807     31843     37241     29615     44847     67108 
dram[5]:     42773     15488     47619     50499     33026     48177     30406     28303     28924     58275     52519     29073     34165     45352     52576     39434 
average row accesses per activate:
dram[0]:  8.920000  9.500000  6.892857  6.600000  4.260000  3.982143  6.065217  4.000000  6.261905  5.666667  6.105263  6.256410  6.823529  7.687500  7.266667  6.696970 
dram[1]:  8.259259  8.360000  6.218750  6.129032  3.944444  3.706897  4.059701  4.714286  5.976744  5.255319  6.647059  5.725000  5.604651  6.358974  5.684210  5.842105 
dram[2]: 10.428572 14.200000 10.888889 10.526316  4.176471  4.384615  4.531250  6.088889  5.674418  6.631579  7.437500  5.348837  6.513514  7.606061  9.291667  6.470588 
dram[3]:  6.228571  9.409091  9.842105  9.000000  4.386364  4.192307  4.781818  4.981818  8.642858  6.175000  6.852941  5.232558  6.800000  6.461538  6.138889  6.625000 
dram[4]: 12.000000 15.285714 11.882353  6.593750  4.226415  3.590164  4.406250  4.583333  7.111111  5.140000  7.516129  5.260870  7.806452  5.727273  6.906250  7.187500 
dram[5]:  8.000000 11.263158  9.952381  6.483871  3.606557  4.160000  4.285714  4.927273  6.450000  5.739130  5.500000  6.243243  6.970588  7.657143  6.135135  6.222222 
average row locality = 22277/3705 = 6.012686
number of total memory accesses made:
dram[0]:         0         0         0         0         0         0         0         0         0         0         0         0         0         0         0         0 
dram[1]:         0         0         0         0         0         0         0         0         0         0         0         0         0         0         0         0 
dram[2]:         0         0         0         0         0         0         0         0         0         0         0         0         0         0         0         0 
dram[3]:         0         0         0         0         0         0         0         0         0         0         0         0         0         0         0         0 
dram[4]:         0         0         0         0         0         0         0         0         0         0         0         0         0         0         0         0 
dram[5]:         0         0         0         0         0         0         0         0         0         0         0         0         0         0         0         0 
total accesses: 0
min_bank_accesses = 0!
min_chip_accesses = 0!
number of total read accesses:
dram[0]:       103        92        84        84        83        93       112       118       119       111       107       110       109       111       100       100 
dram[1]:        98        91        83        79        89        87       119       108       119       113       103       105       109       110        98       100 
dram[2]:        96        95        85        86        88        90       123       112       118       117       106       107       109       115       100       101 
dram[3]:        95        90        81        87        76        93       110       118       112       114       105       104       107       114        98        99 
dram[4]:        96        96        87        89        92        90       114       119       118       119       105       109       110       113       103       102 
dram[5]:        93        98        89        83        93        82       115       112       119       121       105       107       108       118       103       101 
total reads: 9807
bank skew: 123/76 = 1.62
chip skew: 1662/1603 = 1.04
number of total write accesses:
dram[0]:       120       117       109       114       130       130       167       162       144       127       125       134       123       135       118       121 
dram[1]:       125       118       116       111       124       128       153       156       138       134       123       124       132       138       118       122 
dram[2]:       123       118       111       114       125       138       167       162       126       135       132       123       132       136       123       119 
dram[3]:       123       117       106       120       117       125       153       156       130       133       128       121       131       138       123       113 
dram[4]:       120       118       115       122       132       129       168       156       138       138       128       133       132       139       118       128 
dram[5]:       123       116       120       118       127       126       155       159       139       143       126       124       129       150       124       123 
total reads: 12470
bank skew: 168/106 = 1.58
chip skew: 2114/2034 = 1.04
average mf latency per bank:
dram[0]:        566       498       659       596       682       610       691       590       620       680       709       656       701       639       621       635
dram[1]:        509       502       575       596       599       596       612       596       587       623       664       651       628       587       596       592
dram[2]:        537       543       663       646       705       655       593       677       692       630       664       703       670       641       634       605
dram[3]:        470       515       657       598       673       608       590       598       628       584       616       663       616       594       592       581
dram[4]:        500       543       672       607       636       708       645       647       655       619       668       701       698       640       642       629
dram[5]:        455       505       582       563       548       640       571       577       594       554       605       645       613       542       571       556
maximum mf latency per bank:
dram[0]:       1293      1002      1676      1197      1363      1246      1436      1223      1354      1238      1300      1170      1424      1291      1230      1128
dram[1]:        914      1006      1318      1232      1097      1194      1045      1048      1033       997      1067      1015       960       939       997      1089
dram[2]:       1316      1333      1735      1723      1548      1584      1584      1442      1432      1494      1290      1221      1328      1442      1382      1319
dram[3]:       1138      1370      1537      1697      1341      1619      1117      1455      1075      1072       991      1106      1029      1192      1153      1087
dram[4]:       1393      1510      1827      1821      1698      1698      1689      1761      1615      1426      1322      1302      1365      1197      1231      1358
dram[5]:       1374      1347      1776      1558      1604      1693      1447      1507      1206      1027      1112      1036      1117      1110      1102      1070

Number of Memory Banks Accessed per Memory Operation per Warp (from 0):
0	0	0	0	0	0	0	0	0	0	0	0	0	0	0	0	0	0	0	0	0	0	0	0	0	0	0	0	0	0	0	0	0	0	0	0	0	0	0	0	0	0	0	0	0	0	0	0	0	0	0	0	0	0	0	0	0	0	0	0	0	0	0	0	0	0	0	0	0	0	0	0	0	0	0	0	0	0	0	0	0	0	0	0	0	0	0	0	0	0	0	0	0	0	0	0	
Average # of Memory Banks Accessed per Memory Operation per Warp=-nan

position of mrq chosen
0	0	0	0	0	0	0	0	0	0	0	0	0	0	0	0	

average position of mrq chosen = -nan
Memory Partition 0: 
Cache L2_bank_000:
MSHR contents

Cache L2_bank_001:
MSHR contents

In Dram Latency Queue (total = 0): 
DRAM[0]: 16 bks, busW=4 BL=8 CL=12, tRRD=2 tCCD=6, tRCD=12 tRAS=28 tRP=12 tRC=40
n_cmd=184938 n_nop=176790 n_act=617 n_pre=601 n_req=3712 n_rd=3272 n_write=3658 bw_util=0.07494
n_activity=31398 dram_eff=0.4414
bk0: 206a 178647i bk1: 184a 179036i bk2: 168a 178249i bk3: 168a 178199i bk4: 166a 176314i bk5: 186a 176566i bk6: 224a 174963i bk7: 236a 174446i bk8: 238a 176693i bk9: 222a 177044i bk10: 214a 176880i bk11: 220a 176961i bk12: 218a 176907i bk13: 222a 176926i bk14: 200a 178055i bk15: 200a 178058i 
dram_util_bins: 0 0 0 0 0 0 0 0 0 0
dram_eff_bins: 0 0 0 0 0 0 0 0 0 0
mrqq: max=16 avg=1.15607
Memory Partition 1: 
Cache L2_bank_002:
MSHR contents

Cache L2_bank_003:
MSHR contents

In Dram Latency Queue (total = 0): 
DRAM[1]: 16 bks, busW=4 BL=8 CL=12, tRRD=2 tCCD=6, tRCD=12 tRAS=28 tRP=12 tRC=40
n_cmd=184938 n_nop=176768 n_act=672 n_pre=656 n_req=3671 n_rd=3222 n_write=3620 bw_util=0.07399
n_activity=31794 dram_eff=0.4304
bk0: 196a 178786i bk1: 182a 179284i bk2: 166a 177993i bk3: 158a 178470i bk4: 178a 176831i bk5: 174a 176233i bk6: 238a 174935i bk7: 216a 175412i bk8: 238a 176695i bk9: 226a 176752i bk10: 206a 176920i bk11: 210a 177295i bk12: 218a 176746i bk13: 220a 176897i bk14: 196a 178084i bk15: 200a 178178i 
dram_util_bins: 0 0 0 0 0 0 0 0 0 0
dram_eff_bins: 0 0 0 0 0 0 0 0 0 0
mrqq: max=16 avg=1.04203
Memory Partition 2: 
Cache L2_bank_004:
MSHR contents

Cache L2_bank_005:
MSHR contents

In Dram Latency Queue (total = 0): 
DRAM[2]: 16 bks, busW=4 BL=8 CL=12, tRRD=2 tCCD=6, tRCD=12 tRAS=28 tRP=12 tRC=40
n_cmd=184938 n_nop=176844 n_act=569 n_pre=553 n_req=3732 n_rd=3296 n_write=3676 bw_util=0.0754
n_activity=31924 dram_eff=0.4368
bk0: 192a 179012i bk1: 190a 179278i bk2: 170a 178740i bk3: 172a 178859i bk4: 176a 177011i bk5: 180a 176228i bk6: 246a 174550i bk7: 224a 175180i bk8: 236a 177447i bk9: 234a 176916i bk10: 212a 176690i bk11: 214a 177179i bk12: 218a 176586i bk13: 230a 176478i bk14: 200a 177869i bk15: 202a 177864i 
dram_util_bins: 0 0 0 0 0 0 0 0 0 0
dram_eff_bins: 0 0 0 0 0 0 0 0 0 0
mrqq: max=16 avg=1.19701
Memory Partition 3: 
Cache L2_bank_006:
MSHR contents

Cache L2_bank_007:
MSHR contents

In Dram Latency Queue (total = 0): 
DRAM[3]: 16 bks, busW=4 BL=8 CL=12, tRRD=2 tCCD=6, tRCD=12 tRAS=28 tRP=12 tRC=40
n_cmd=184938 n_nop=176988 n_act=592 n_pre=576 n_req=3637 n_rd=3206 n_write=3576 bw_util=0.07334
n_activity=31682 dram_eff=0.4281
bk0: 190a 178977i bk1: 180a 179043i bk2: 162a 179221i bk3: 174a 178712i bk4: 152a 177448i bk5: 186a 177130i bk6: 220a 175944i bk7: 236a 175285i bk8: 224a 177445i bk9: 228a 177159i bk10: 210a 177590i bk11: 208a 177549i bk12: 214a 177531i bk13: 228a 177014i bk14: 196a 178024i bk15: 198a 178214i 
dram_util_bins: 0 0 0 0 0 0 0 0 0 0
dram_eff_bins: 0 0 0 0 0 0 0 0 0 0
mrqq: max=16 avg=1.02199
Memory Partition 4: 
Cache L2_bank_008:
MSHR contents

Cache L2_bank_009:
MSHR contents

In Dram Latency Queue (total = 0): 
DRAM[4]: 16 bks, busW=4 BL=8 CL=12, tRRD=2 tCCD=6, tRCD=12 tRAS=28 tRP=12 tRC=40
n_cmd=184938 n_nop=176649 n_act=621 n_pre=605 n_req=3776 n_rd=3324 n_write=3739 bw_util=0.07638
n_activity=33080 dram_eff=0.427
bk0: 192a 179249i bk1: 192a 179441i bk2: 174a 178247i bk3: 178a 178115i bk4: 184a 176796i bk5: 180a 175979i bk6: 228a 174514i bk7: 238a 174437i bk8: 236a 176272i bk9: 238a 176532i bk10: 210a 177444i bk11: 218a 176841i bk12: 220a 176300i bk13: 226a 176818i bk14: 206a 178130i bk15: 204a 177740i 
dram_util_bins: 0 0 0 0 0 0 0 0 0 0
dram_eff_bins: 0 0 0 0 0 0 0 0 0 0
mrqq: max=16 avg=1.17843
Memory Partition 5: 
Cache L2_bank_010:
MSHR contents

Cache L2_bank_011:
MSHR contents

In Dram Latency Queue (total = 0): 
DRAM[5]: 16 bks, busW=4 BL=8 CL=12, tRRD=2 tCCD=6, tRCD=12 tRAS=28 tRP=12 tRC=40
n_cmd=184938 n_nop=176683 n_act=634 n_pre=618 n_req=3749 n_rd=3294 n_write=3709 bw_util=0.07573
n_activity=33146 dram_eff=0.4226
bk0: 186a 179135i bk1: 196a 178951i bk2: 178a 178146i bk3: 166a 178538i bk4: 186a 177010i bk5: 164a 176583i bk6: 230a 175528i bk7: 224a 175491i bk8: 238a 177086i bk9: 242a 177160i bk10: 210a 177432i bk11: 214a 177556i bk12: 216a 177489i bk13: 236a 176215i bk14: 206a 177704i bk15: 202a 178359i 
dram_util_bins: 0 0 0 0 0 0 0 0 0 0
dram_eff_bins: 0 0 0 0 0 0 0 0 0 0
mrqq: max=16 avg=1.01133

========= L2 cache stats =========
L2_cache_bank[0]: Access = 5103, Miss = 817, Miss_rate = 0.160, Pending_hits = 97, Reservation_fails = 1115
L2_cache_bank[1]: Access = 5247, Miss = 819, Miss_rate = 0.156, Pending_hits = 85, Reservation_fails = 633
L2_cache_bank[2]: Access = 5137, Miss = 818, Miss_rate = 0.159, Pending_hits = 91, Reservation_fails = 565
L2_cache_bank[3]: Access = 5194, Miss = 793, Miss_rate = 0.153, Pending_hits = 95, Reservation_fails = 387
L2_cache_bank[4]: Access = 4989, Miss = 825, Miss_rate = 0.165, Pending_hits = 91, Reservation_fails = 585
L2_cache_bank[5]: Access = 5173, Miss = 823, Miss_rate = 0.159, Pending_hits = 86, Reservation_fails = 373
L2_cache_bank[6]: Access = 5254, Miss = 784, Miss_rate = 0.149, Pending_hits = 87, Reservation_fails = 519
L2_cache_bank[7]: Access = 5388, Miss = 819, Miss_rate = 0.152, Pending_hits = 79, Reservation_fails = 419
L2_cache_bank[8]: Access = 5267, Miss = 825, Miss_rate = 0.157, Pending_hits = 82, Reservation_fails = 788
L2_cache_bank[9]: Access = 5077, Miss = 837, Miss_rate = 0.165, Pending_hits = 84, Reservation_fails = 389
L2_cache_bank[10]: Access = 5265, Miss = 825, Miss_rate = 0.157, Pending_hits = 74, Reservation_fails = 592
L2_cache_bank[11]: Access = 5143, Miss = 822, Miss_rate = 0.160, Pending_hits = 100, Reservation_fails = 378
L2_total_cache_accesses = 62237
L2_total_cache_misses = 9807
L2_total_cache_miss_rate = 0.1576
L2_total_cache_pending_hits = 1051
L2_total_cache_reservation_fails = 6743
L2_total_cache_breakdown:
	L2_cache_stats_breakdown[GLOBAL_ACC_R][HIT] = 3631
	L2_cache_stats_breakdown[GLOBAL_ACC_R][HIT_RESERVED] = 13
	L2_cache_stats_breakdown[GLOBAL_ACC_R][MISS] = 78
	L2_cache_stats_breakdown[GLOBAL_ACC_R][RESERVATION_FAIL] = 7
	L2_cache_stats_breakdown[LOCAL_ACC_R][HIT] = 3723
	L2_cache_stats_breakdown[LOCAL_ACC_R][MISS] = 187
	L2_cache_stats_breakdown[CONST_ACC_R][HIT] = 22
	L2_cache_stats_breakdown[CONST_ACC_R][HIT_RESERVED] = 6
	L2_cache_stats_breakdown[CONST_ACC_R][MISS] = 2
	L2_cache_stats_breakdown[CONST_ACC_R][RESERVATION_FAIL] = 353
	L2_cache_stats_breakdown[GLOBAL_ACC_W][HIT] = 5268
	L2_cache_stats_breakdown[GLOBAL_ACC_W][HIT_RESERVED] = 876
	L2_cache_stats_breakdown[GLOBAL_ACC_W][MISS] = 2048
	L2_cache_stats_breakdown[GLOBAL_ACC_W][RESERVATION_FAIL] = 97
	L2_cache_stats_breakdown[LOCAL_ACC_W][HIT] = 25916
	L2_cache_stats_breakdown[LOCAL_ACC_W][MISS] = 7433
	L2_cache_stats_breakdown[LOCAL_ACC_W][RESERVATION_FAIL] = 544
	L2_cache_stats_breakdown[L1_WRBK_ACC][HIT] = 4
	L2_cache_stats_breakdown[L1_WRBK_ACC][MISS] = 6
	L2_cache_stats_breakdown[INST_ACC_R][HIT] = 12815
	L2_cache_stats_breakdown[INST_ACC_R][HIT_RESERVED] = 156
	L2_cache_stats_breakdown[INST_ACC_R][MISS] = 53
	L2_cache_stats_breakdown[INST_ACC_R][RESERVATION_FAIL] = 5742
L2_cache_data_port_util = 0.115
L2_cache_fill_port_util = 0.023

icnt_total_pkts_mem_to_simt=144911
icnt_total_pkts_simt_to_mem=209711
LD_mem_lat_dist  0 0 0 0 0 0 0 0 0 0 0 0 0 0 0 0 0 0 0 0 0 0 0 0 0 0 0
ST_mem_lat_dist  0 0 0 0 0 0 0 0 0 0 0 0 0 0 0 0 0 0 0 0 0 0 0 0 0 0 0
----------------------------Interconnect-DETAILS--------------------------------
Class 0:
Packet latency average = 17.7045
	minimum = 6
	maximum = 630
Network latency average = 14.0182
	minimum = 6
	maximum = 582
Slowest packet = 1359
Flit latency average = 13.5573
	minimum = 6
	maximum = 578
Slowest flit = 5056
Fragmentation average = 0.136602
	minimum = 0
	maximum = 553
Injected packet rate average = 0.0329023
	minimum = 0.0256665 (at node 13)
	maximum = 0.0384569 (at node 22)
Accepted packet rate average = 0.0329023
	minimum = 0.0256665 (at node 13)
	maximum = 0.0384569 (at node 22)
Injected flit rate average = 0.093745
	minimum = 0.0786339 (at node 12)
	maximum = 0.123315 (at node 0)
Accepted flit rate average= 0.093745
	minimum = 0.0619821 (at node 2)
	maximum = 0.126883 (at node 17)
Injected packet length average = 2.84919
Accepted packet length average = 2.84919
Total in-flight flits = 0 (0 measured)
====== Overall Traffic Statistics ======
====== Traffic class 0 ======
Packet latency average = 17.7045 (1 samples)
	minimum = 6 (1 samples)
	maximum = 630 (1 samples)
Network latency average = 14.0182 (1 samples)
	minimum = 6 (1 samples)
	maximum = 582 (1 samples)
Flit latency average = 13.5573 (1 samples)
	minimum = 6 (1 samples)
	maximum = 578 (1 samples)
Fragmentation average = 0.136602 (1 samples)
	minimum = 0 (1 samples)
	maximum = 553 (1 samples)
Injected packet rate average = 0.0329023 (1 samples)
	minimum = 0.0256665 (1 samples)
	maximum = 0.0384569 (1 samples)
Accepted packet rate average = 0.0329023 (1 samples)
	minimum = 0.0256665 (1 samples)
	maximum = 0.0384569 (1 samples)
Injected flit rate average = 0.093745 (1 samples)
	minimum = 0.0786339 (1 samples)
	maximum = 0.123315 (1 samples)
Accepted flit rate average = 0.093745 (1 samples)
	minimum = 0.0619821 (1 samples)
	maximum = 0.126883 (1 samples)
Injected packet size average = 2.84919 (1 samples)
Accepted packet size average = 2.84919 (1 samples)
Hops average = 1 (1 samples)
----------------------------END-of-Interconnect-DETAILS-------------------------


gpgpu_simulation_time = 0 days, 0 hrs, 2 min, 36 sec (156 sec)
gpgpu_simulation_rate = 401811 (inst/sec)
gpgpu_simulation_rate = 898 (cycle/sec)
GPGPU-Sim: synchronize waiting for inactive GPU simulation
GPGPU-Sim API: Stream Manager State
GPGPU-Sim: detected inactive GPU simulation thread

checksum=75ef40cb5b8e
Kernel Time: 154030.937500 
