

        *** GPGPU-Sim Simulator Version 3.2.2  [build 0] ***


GPGPU-Sim PTX: simulation mode 0 (can change with PTX_SIM_MODE_FUNC environment variable:
               1=functional simulation only, 0=detailed performance simulator)
GPGPU-Sim: Configuration options:

-network_mode                           1 # Interconnection network mode
-inter_config_file   config_fermi_islip.icnt # Interconnection network config file
-gpgpu_ptx_use_cuobjdump                    1 # Use cuobjdump to extract ptx and sass from binaries
-gpgpu_experimental_lib_support                    0 # Try to extract code from cuda libraries [Broken because of unknown cudaGetExportTable]
-gpgpu_ptx_convert_to_ptxplus                    0 # Convert SASS (native ISA) to ptxplus and run ptxplus
-gpgpu_ptx_force_max_capability                   20 # Force maximum compute capability
-gpgpu_ptx_inst_debug_to_file                    0 # Dump executed instructions' debug information to file
-gpgpu_ptx_inst_debug_file       inst_debug.txt # Executed instructions' debug output file
-gpgpu_ptx_inst_debug_thread_uid                    1 # Thread UID for executed instructions' debug output
-gpgpu_simd_model                       1 # 1 = post-dominator
-gpgpu_shader_core_pipeline              1536:32 # shader core pipeline config, i.e., {<nthread>:<warpsize>}
-gpgpu_tex_cache:l1  4:128:24,L:R:m:N:L,F:128:4,128:2 # per-shader L1 texture cache  (READ-ONLY) config  {<nsets>:<bsize>:<assoc>,<rep>:<wr>:<alloc>:<wr_alloc>,<mshr>:<N>:<merge>,<mq>:<rf>}
-gpgpu_const_cache:l1 64:64:2,L:R:f:N:L,A:2:32,4 # per-shader L1 constant memory cache  (READ-ONLY) config  {<nsets>:<bsize>:<assoc>,<rep>:<wr>:<alloc>:<wr_alloc>,<mshr>:<N>:<merge>,<mq>} 
-gpgpu_cache:il1     4:128:4,L:R:f:N:L,A:2:32,4 # shader L1 instruction cache config  {<nsets>:<bsize>:<assoc>,<rep>:<wr>:<alloc>:<wr_alloc>,<mshr>:<N>:<merge>,<mq>} 
-gpgpu_cache:dl1     32:128:4,L:L:m:N:H,A:32:8,8 # per-shader L1 data cache config  {<nsets>:<bsize>:<assoc>,<rep>:<wr>:<alloc>:<wr_alloc>,<mshr>:<N>:<merge>,<mq> | none}
-gpgpu_cache:dl1PrefL1                 none # per-shader L1 data cache config  {<nsets>:<bsize>:<assoc>,<rep>:<wr>:<alloc>:<wr_alloc>,<mshr>:<N>:<merge>,<mq> | none}
-gpgpu_cache:dl1PreShared                 none # per-shader L1 data cache config  {<nsets>:<bsize>:<assoc>,<rep>:<wr>:<alloc>:<wr_alloc>,<mshr>:<N>:<merge>,<mq> | none}
-gmem_skip_L1D                          0 # global memory access skip L1D cache (implements -Xptxas -dlcm=cg, default=no skip)
-gpgpu_perfect_mem                      0 # enable perfect memory mode (no cache miss)
-n_regfile_gating_group                    4 # group of lanes that should be read/written together)
-gpgpu_clock_gated_reg_file                    0 # enable clock gated reg file for power calculations
-gpgpu_clock_gated_lanes                    0 # enable clock gated lanes for power calculations
-gpgpu_shader_registers                32768 # Number of registers per shader core. Limits number of concurrent CTAs. (default 8192)
-gpgpu_shader_cta                       8 # Maximum number of concurrent CTAs in shader (default 8)
-gpgpu_num_cta_barriers                   16 # Maximum number of named barriers per CTA (default 16)
-gpgpu_n_clusters                      15 # number of processing clusters
-gpgpu_n_cores_per_cluster                    1 # number of simd cores per cluster
-gpgpu_n_cluster_ejection_buffer_size                    8 # number of packets in ejection buffer
-gpgpu_n_ldst_response_buffer_size                    2 # number of response packets in ld/st unit ejection buffer
-gpgpu_shmem_size                   16384 # Size of shared memory per shader core (default 16kB)
-gpgpu_shmem_size                   49152 # Size of shared memory per shader core (default 16kB)
-gpgpu_shmem_size_PrefL1                16384 # Size of shared memory per shader core (default 16kB)
-gpgpu_shmem_size_PrefShared                16384 # Size of shared memory per shader core (default 16kB)
-gpgpu_shmem_num_banks                   32 # Number of banks in the shared memory in each shader core (default 16)
-gpgpu_shmem_limited_broadcast                    0 # Limit shared memory to do one broadcast per cycle (default on)
-gpgpu_shmem_warp_parts                    1 # Number of portions a warp is divided into for shared memory bank conflict check 
-gpgpu_warpdistro_shader                   -1 # Specify which shader core to collect the warp size distribution from
-gpgpu_warp_issue_shader                    0 # Specify which shader core to collect the warp issue distribution from
-gpgpu_local_mem_map                    1 # Mapping from local memory space address to simulated GPU physical address space (default = enabled)
-gpgpu_num_reg_banks                   16 # Number of register banks (default = 8)
-gpgpu_reg_bank_use_warp_id                    0 # Use warp ID in mapping registers to banks (default = off)
-gpgpu_operand_collector_num_units_sp                    6 # number of collector units (default = 4)
-gpgpu_operand_collector_num_units_sfu                    8 # number of collector units (default = 4)
-gpgpu_operand_collector_num_units_mem                    2 # number of collector units (default = 2)
-gpgpu_operand_collector_num_units_gen                    0 # number of collector units (default = 0)
-gpgpu_operand_collector_num_in_ports_sp                    2 # number of collector unit in ports (default = 1)
-gpgpu_operand_collector_num_in_ports_sfu                    1 # number of collector unit in ports (default = 1)
-gpgpu_operand_collector_num_in_ports_mem                    1 # number of collector unit in ports (default = 1)
-gpgpu_operand_collector_num_in_ports_gen                    0 # number of collector unit in ports (default = 0)
-gpgpu_operand_collector_num_out_ports_sp                    2 # number of collector unit in ports (default = 1)
-gpgpu_operand_collector_num_out_ports_sfu                    1 # number of collector unit in ports (default = 1)
-gpgpu_operand_collector_num_out_ports_mem                    1 # number of collector unit in ports (default = 1)
-gpgpu_operand_collector_num_out_ports_gen                    0 # number of collector unit in ports (default = 0)
-gpgpu_coalesce_arch                   13 # Coalescing arch (default = 13, anything else is off for now)
-gpgpu_num_sched_per_core                    2 # Number of warp schedulers per core
-gpgpu_max_insn_issue_per_warp                    1 # Max number of instructions that can be issued per warp in one cycle by scheduler
-gpgpu_simt_core_sim_order                    1 # Select the simulation order of cores in a cluster (0=Fix, 1=Round-Robin)
-gpgpu_pipeline_widths        2,1,1,2,1,1,2 # Pipeline widths ID_OC_SP,ID_OC_SFU,ID_OC_MEM,OC_EX_SP,OC_EX_SFU,OC_EX_MEM,EX_WB
-gpgpu_num_sp_units                     2 # Number of SP units (default=1)
-gpgpu_num_sfu_units                    1 # Number of SF units (default=1)
-gpgpu_num_mem_units                    1 # Number if ldst units (default=1) WARNING: not hooked up to anything
-gpgpu_scheduler                      gto # Scheduler configuration: < lrr | gto | two_level_active > If two_level_active:<num_active_warps>:<inner_prioritization>:<outer_prioritization>For complete list of prioritization values see shader.h enum scheduler_prioritization_typeDefault: gto
-gpgpu_dram_scheduler                    1 # 0 = fifo, 1 = FR-FCFS (defaul)
-gpgpu_dram_partition_queues              8:8:8:8 # i2$:$2d:d2$:$2i
-l2_ideal                               0 # Use a ideal L2 cache that always hit
-gpgpu_cache:dl2     64:128:8,L:B:m:W:L,A:32:4,4:0,32 # unified banked L2 data cache config  {<nsets>:<bsize>:<assoc>,<rep>:<wr>:<alloc>:<wr_alloc>,<mshr>:<N>:<merge>,<mq>}
-gpgpu_cache:dl2_texture_only                    0 # L2 cache used for texture only
-gpgpu_n_mem                            6 # number of memory modules (e.g. memory controllers) in gpu
-gpgpu_n_sub_partition_per_mchannel                    2 # number of memory subpartition in each memory module
-gpgpu_n_mem_per_ctrlr                    2 # number of memory chips per memory controller
-gpgpu_memlatency_stat                   14 # track and display latency statistics 0x2 enables MC, 0x4 enables queue logs
-gpgpu_frfcfs_dram_sched_queue_size                   16 # 0 = unlimited (default); # entries per chip
-gpgpu_dram_return_queue_size                  116 # 0 = unlimited (default); # entries per chip
-gpgpu_dram_buswidth                    8 # default = 4 bytes (8 bytes per cycle at DDR)
-gpgpu_dram_burst_length                    8 # Burst length of each DRAM request (default = 4 data bus cycle)
-dram_data_command_freq_ratio                    4 # Frequency ratio between DRAM data bus and command bus (default = 2 times, i.e. DDR)
-gpgpu_dram_timing_opt nbk=16:CCD=2:RRD=6:RCD=12:RAS=28:RP=12:RC=40: CL=12:WL=4:CDLR=5:WR=12:nbkgrp=4:CCDL=3:RTPL=2 # DRAM timing parameters = {nbk:tCCD:tRRD:tRCD:tRAS:tRP:tRC:CL:WL:tCDLR:tWR:nbkgrp:tCCDL:tRTPL}
-rop_latency                          120 # ROP queue latency (default 85)
-dram_latency                         100 # DRAM latency (default 30)
-gpgpu_mem_addr_mapping dramid@8;00000000.00000000.00000000.00000000.0000RRRR.RRRRRRRR.BBBCCCCB.CCSSSSSS # mapping memory address to dram model {dramid@<start bit>;<memory address map>}
-gpgpu_mem_addr_test                    0 # run sweep test to check address mapping for aliased address
-gpgpu_mem_address_mask                    1 # 0 = old addressing mask, 1 = new addressing mask, 2 = new add. mask + flipped bank sel and chip sel bits
-gpuwattch_xml_file  gpuwattch_gtx480.xml # GPUWattch XML file
-power_simulation_enabled                    0 # Turn on power simulator (1=On, 0=Off)
-power_per_cycle_dump                    0 # Dump detailed power output each cycle
-power_trace_enabled                    0 # produce a file for the power trace (1=On, 0=Off)
-power_trace_zlevel                     6 # Compression level of the power trace output log (0=no comp, 9=highest)
-steady_power_levels_enabled                    0 # produce a file for the steady power levels (1=On, 0=Off)
-steady_state_definition                  8:4 # allowed deviation:number of samples
-gpgpu_max_cycle                        0 # terminates gpu simulation early (0 = no limit)
-gpgpu_max_insn                         0 # terminates gpu simulation early (0 = no limit)
-gpgpu_max_cta                          0 # terminates gpu simulation early (0 = no limit)
-gpgpu_runtime_stat                   500 # display runtime statistics such as dram utilization {<freq>:<flag>}
-liveness_message_freq                    1 # Minimum number of seconds between simulation liveness messages (0 = always print)
-gpgpu_flush_l1_cache                    0 # Flush L1 cache at the end of each kernel call
-gpgpu_flush_l2_cache                    0 # Flush L2 cache at the end of each kernel call
-gpgpu_deadlock_detect                    1 # Stop the simulation at deadlock (1=on (default), 0=off)
-gpgpu_ptx_instruction_classification                    0 # if enabled will classify ptx instruction types per kernel (Max 255 kernels now)
-gpgpu_ptx_sim_mode                     0 # Select between Performance (default) or Functional simulation (1)
-gpgpu_clock_domains 700.0:700.0:700.0:924.0 # Clock Domain Frequencies in MhZ {<Core Clock>:<ICNT Clock>:<L2 Clock>:<DRAM Clock>}
-gpgpu_max_concurrent_kernel                    8 # maximum kernels that can run concurrently on GPU
-gpgpu_cflog_interval                    0 # Interval between each snapshot in control flow logger
-visualizer_enabled                     0 # Turn on visualizer output (1=On, 0=Off)
-visualizer_outputfile                 NULL # Specifies the output log file for visualizer
-visualizer_zlevel                      6 # Compression level of the visualizer output log (0=no comp, 9=highest)
-trace_enabled                          0 # Turn on traces
-trace_components                    none # comma seperated list of traces to enable. Complete list found in trace_streams.tup. Default none
-trace_sampling_core                    0 # The core which is printed using CORE_DPRINTF. Default 0
-trace_sampling_memory_partition                   -1 # The memory partition which is printed using MEMPART_DPRINTF. Default -1 (i.e. all)
-enable_ptx_file_line_stats                    1 # Turn on PTX source line statistic profiling. (1 = On)
-ptx_line_stats_filename gpgpu_inst_stats.txt # Output file for PTX source line statistics.
-save_embedded_ptx                      0 # saves ptx files embedded in binary as <n>.ptx
-keep                                   0 # keep intermediate files created by GPGPU-Sim when interfacing with external programs
-gpgpu_ptx_save_converted_ptxplus                    0 # Saved converted ptxplus to a file
-ptx_opcode_latency_int         4,13,4,5,145 # Opcode latencies for integers <ADD,MAX,MUL,MAD,DIV>Default 1,1,19,25,145
-ptx_opcode_latency_fp          4,13,4,5,39 # Opcode latencies for single precision floating points <ADD,MAX,MUL,MAD,DIV>Default 1,1,1,1,30
-ptx_opcode_latency_dp         8,19,8,8,330 # Opcode latencies for double precision floating points <ADD,MAX,MUL,MAD,DIV>Default 8,8,8,8,335
-ptx_opcode_initiation_int            1,2,2,1,8 # Opcode initiation intervals for integers <ADD,MAX,MUL,MAD,DIV>Default 1,1,4,4,32
-ptx_opcode_initiation_fp            1,2,1,1,4 # Opcode initiation intervals for single precision floating points <ADD,MAX,MUL,MAD,DIV>Default 1,1,1,1,5
-ptx_opcode_initiation_dp         8,16,8,8,130 # Opcode initiation intervals for double precision floating points <ADD,MAX,MUL,MAD,DIV>Default 8,8,8,8,130
DRAM Timing Options:
nbk                                    16 # number of banks
CCD                                     2 # column to column delay
RRD                                     6 # minimal delay between activation of rows in different banks
RCD                                    12 # row to column delay
RAS                                    28 # time needed to activate row
RP                                     12 # time needed to precharge (deactivate) row
RC                                     40 # row cycle time
CDLR                                    5 # switching from write to read (changes tWTR)
WR                                     12 # last data-in to row precharge
CL                                     12 # CAS latency
WL                                      4 # Write latency
nbkgrp                                  4 # number of bank groups
CCDL                                    3 # column to column delay between accesses to different bank groups
RTPL                                    2 # read to precharge delay between accesses to different bank groups
Total number of memory sub partition = 12
addr_dec_mask[CHIP]  = 0000000000000000 	high:64 low:0
addr_dec_mask[BK]    = 000000000000e100 	high:16 low:8
addr_dec_mask[ROW]   = 000000000fff0000 	high:28 low:16
addr_dec_mask[COL]   = 0000000000001eff 	high:13 low:0
addr_dec_mask[BURST] = 000000000000003f 	high:6 low:0
sub_partition_id_mask = 0000000000000100
GPGPU-Sim uArch: clock freqs: 700000000.000000:700000000.000000:700000000.000000:924000000.000000
GPGPU-Sim uArch: clock periods: 0.00000000142857142857:0.00000000142857142857:0.00000000142857142857:0.00000000108225108225
*** Initializing Memory Statistics ***
GPGPU-Sim uArch: interconnect node map (shaderID+MemID to icntID)
GPGPU-Sim uArch: Memory nodes ID start from index: 15
GPGPU-Sim uArch:    0   1   2   3   4
GPGPU-Sim uArch:    5   6   7   8   9
GPGPU-Sim uArch:   10  11  12  13  14
GPGPU-Sim uArch:   15  16  17  18  19
GPGPU-Sim uArch:   20  21  22  23  24
GPGPU-Sim uArch:   25  26
GPGPU-Sim uArch: interconnect node reverse map (icntID to shaderID+MemID)
GPGPU-Sim uArch: Memory nodes start from ID: 15
GPGPU-Sim uArch:    0   1   2   3   4
GPGPU-Sim uArch:    5   6   7   8   9
GPGPU-Sim uArch:   10  11  12  13  14
GPGPU-Sim uArch:   15  16  17  18  19
GPGPU-Sim uArch:   20  21  22  23  24
GPGPU-Sim uArch:   25  26
c498d9f32ab5dd92351405d48e0f6df7  /sciclone/data20/adwait/applications/benchmarks/CUDA/BFS/gpgpu_ptx_sim__BFS
GPGPU-Sim uArch: performance model initialization complete.
GPGPU-Sim PTX: __cudaRegisterFatBinary, fat_cubin_handle = 1, filename=bfs.cu
self exe links to: /sciclone/data20/adwait/applications/benchmarks/CUDA/BFS/gpgpu_ptx_sim__BFS
Running md5sum using "md5sum /sciclone/data20/adwait/applications/benchmarks/CUDA/BFS/gpgpu_ptx_sim__BFS "
Parsing file _cuobjdump_complete_output_2fEEeu
######### cuobjdump parser ########
## Adding new section ELF
Adding arch: sm_20
Adding identifier: bfs.cu
## Adding new section PTX
Adding ptx filename: _cuobjdump_1.ptx
Adding arch: sm_20
Adding identifier: bfs.cu
Done parsing!!!
GPGPU-Sim PTX: __cudaRegisterFunction _Z6KernelP4NodePiPbS2_S1_S2_i : hostFun 0x0x405636, fat_cubin_handle = 1
GPGPU-Sim PTX: instruction assembly for function '_Z6KernelP4NodePiPbS2_S1_S2_i'...   done.
GPGPU-Sim PTX: finding reconvergence points for '_Z6KernelP4NodePiPbS2_S1_S2_i'...
GPGPU-Sim PTX: Finding dominators for '_Z6KernelP4NodePiPbS2_S1_S2_i'...
GPGPU-Sim PTX: Finding immediate dominators for '_Z6KernelP4NodePiPbS2_S1_S2_i'...
GPGPU-Sim PTX: Finding postdominators for '_Z6KernelP4NodePiPbS2_S1_S2_i'...
GPGPU-Sim PTX: Finding immediate postdominators for '_Z6KernelP4NodePiPbS2_S1_S2_i'...
GPGPU-Sim PTX: pre-decoding instructions for '_Z6KernelP4NodePiPbS2_S1_S2_i'...
GPGPU-Sim PTX: reconvergence points for _Z6KernelP4NodePiPbS2_S1_S2_i...
GPGPU-Sim PTX:  1 (potential) branch divergence @  PC=0x030 (_1.ptx:72) @%p1 bra $Lt_0_5122;
GPGPU-Sim PTX:    immediate post dominator      @  PC=0x1e8 (_1.ptx:141) exit;
GPGPU-Sim PTX:  2 (potential) branch divergence @  PC=0x068 (_1.ptx:79) @%p2 bra $Lt_0_5122;
GPGPU-Sim PTX:    immediate post dominator      @  PC=0x1e8 (_1.ptx:141) exit;
GPGPU-Sim PTX:  3 (potential) branch divergence @  PC=0x0e0 (_1.ptx:97) @%p3 bra $Lt_0_5122;
GPGPU-Sim PTX:    immediate post dominator      @  PC=0x1e8 (_1.ptx:141) exit;
GPGPU-Sim PTX:  4 (potential) branch divergence @  PC=0x138 (_1.ptx:111) @%p4 bra $Lt_0_4354;
GPGPU-Sim PTX:    immediate post dominator      @  PC=0x1c8 (_1.ptx:134) add.s32 %r11, %r11, 1;
GPGPU-Sim PTX:  5 (potential) branch divergence @  PC=0x1e0 (_1.ptx:137) @%p5 bra $Lt_0_4098;
GPGPU-Sim PTX:    immediate post dominator      @  PC=0x1e8 (_1.ptx:141) exit;
GPGPU-Sim PTX: ... end of reconvergence points for _Z6KernelP4NodePiPbS2_S1_S2_i
GPGPU-Sim PTX: ... done pre-decoding instructions for '_Z6KernelP4NodePiPbS2_S1_S2_i'.
GPGPU-Sim PTX: finished parsing EMBEDDED .ptx file _1.ptx
Adding _cuobjdump_1.ptx with cubin handle 1
GPGPU-Sim PTX: extracting embedded .ptx to temporary file "_ptx_vA6OHK"
Running: cat _ptx_vA6OHK | sed 's/.version 1.5/.version 1.4/' | sed 's/, texmode_independent//' | sed 's/\(\.extern \.const\[1\] .b8 \w\+\)\[\]/\1\[1\]/' | sed 's/const\[.\]/const\[0\]/g' > _ptx2_EhmFB1
GPGPU-Sim PTX: generating ptxinfo using "$CUDA_INSTALL_PATH/bin/ptxas --gpu-name=sm_20 -v _ptx2_EhmFB1 --output-file  /dev/null 2> _ptx_vA6OHKinfo"
GPGPU-Sim PTX: Kernel '_Z6KernelP4NodePiPbS2_S1_S2_i' : regs=18, lmem=0, smem=0, cmem=84
GPGPU-Sim PTX: removing ptxinfo using "rm -f _ptx_vA6OHK _ptx2_EhmFB1 _ptx_vA6OHKinfo"
GPGPU-Sim PTX: loading globals with explicit initializers... 
GPGPU-Sim PTX: finished loading globals (0 bytes total).
GPGPU-Sim PTX: loading constants with explicit initializers...  done.
Reading File
Input file: ./data/graph65536.txt
Read File
Copied Everything to GPU memory

GPGPU-Sim PTX: cudaLaunch for 0x0x405636 (mode=performance simulation) on stream 0
GPGPU-Sim PTX: pushing kernel '_Z6KernelP4NodePiPbS2_S1_S2_i' to stream 0, gridDim= (256,1,1) blockDim = (256,1,1) 
kernel '_Z6KernelP4NodePiPbS2_S1_S2_i' transfer to GPU hardware scheduler
GPGPU-Sim uArch: Shader 1 bind to kernel 1 '_Z6KernelP4NodePiPbS2_S1_S2_i'
GPGPU-Sim uArch: CTA/core = 6, limited by: threads regs
GPGPU-Sim uArch: core:  1, cta: 0 initialized @(1,0)
GPGPU-Sim uArch: Shader 2 bind to kernel 1 '_Z6KernelP4NodePiPbS2_S1_S2_i'
GPGPU-Sim uArch: core:  2, cta: 0 initialized @(1,0)
GPGPU-Sim uArch: Shader 3 bind to kernel 1 '_Z6KernelP4NodePiPbS2_S1_S2_i'
GPGPU-Sim uArch: core:  3, cta: 0 initialized @(1,0)
GPGPU-Sim uArch: Shader 4 bind to kernel 1 '_Z6KernelP4NodePiPbS2_S1_S2_i'
GPGPU-Sim uArch: core:  4, cta: 0 initialized @(1,0)
GPGPU-Sim uArch: Shader 5 bind to kernel 1 '_Z6KernelP4NodePiPbS2_S1_S2_i'
GPGPU-Sim uArch: core:  5, cta: 0 initialized @(1,0)
GPGPU-Sim uArch: Shader 6 bind to kernel 1 '_Z6KernelP4NodePiPbS2_S1_S2_i'
GPGPU-Sim uArch: core:  6, cta: 0 initialized @(1,0)
GPGPU-Sim uArch: Shader 7 bind to kernel 1 '_Z6KernelP4NodePiPbS2_S1_S2_i'
GPGPU-Sim uArch: core:  7, cta: 0 initialized @(1,0)
GPGPU-Sim uArch: Shader 8 bind to kernel 1 '_Z6KernelP4NodePiPbS2_S1_S2_i'
GPGPU-Sim uArch: core:  8, cta: 0 initialized @(1,0)
GPGPU-Sim uArch: Shader 9 bind to kernel 1 '_Z6KernelP4NodePiPbS2_S1_S2_i'
GPGPU-Sim uArch: core:  9, cta: 0 initialized @(1,0)
GPGPU-Sim uArch: Shader 10 bind to kernel 1 '_Z6KernelP4NodePiPbS2_S1_S2_i'
GPGPU-Sim uArch: core: 10, cta: 0 initialized @(1,0)
GPGPU-Sim uArch: Shader 11 bind to kernel 1 '_Z6KernelP4NodePiPbS2_S1_S2_i'
GPGPU-Sim uArch: core: 11, cta: 0 initialized @(1,0)
GPGPU-Sim uArch: Shader 12 bind to kernel 1 '_Z6KernelP4NodePiPbS2_S1_S2_i'
GPGPU-Sim uArch: core: 12, cta: 0 initialized @(1,0)
GPGPU-Sim uArch: Shader 13 bind to kernel 1 '_Z6KernelP4NodePiPbS2_S1_S2_i'
GPGPU-Sim uArch: core: 13, cta: 0 initialized @(1,0)
GPGPU-Sim uArch: Shader 14 bind to kernel 1 '_Z6KernelP4NodePiPbS2_S1_S2_i'
GPGPU-Sim uArch: core: 14, cta: 0 initialized @(1,0)
GPGPU-Sim uArch: Shader 0 bind to kernel 1 '_Z6KernelP4NodePiPbS2_S1_S2_i'
GPGPU-Sim uArch: core:  0, cta: 0 initialized @(1,0)
GPGPU-Sim uArch: core:  1, cta: 1 initialized @(2,0)
GPGPU-Sim uArch: core:  2, cta: 1 initialized @(2,0)
GPGPU-Sim uArch: core:  3, cta: 1 initialized @(2,0)
GPGPU-Sim uArch: core:  4, cta: 1 initialized @(2,0)
GPGPU-Sim uArch: core:  5, cta: 1 initialized @(2,0)
GPGPU-Sim uArch: core:  6, cta: 1 initialized @(2,0)
GPGPU-Sim uArch: core:  7, cta: 1 initialized @(2,0)
GPGPU-Sim uArch: core:  8, cta: 1 initialized @(2,0)
GPGPU-Sim uArch: core:  9, cta: 1 initialized @(2,0)
GPGPU-Sim uArch: core: 10, cta: 1 initialized @(2,0)
GPGPU-Sim uArch: core: 11, cta: 1 initialized @(2,0)
GPGPU-Sim uArch: core: 12, cta: 1 initialized @(2,0)
GPGPU-Sim uArch: core: 13, cta: 1 initialized @(2,0)
GPGPU-Sim uArch: core: 14, cta: 1 initialized @(2,0)
GPGPU-Sim uArch: core:  0, cta: 1 initialized @(2,0)
GPGPU-Sim uArch: core:  1, cta: 2 initialized @(3,0)
GPGPU-Sim uArch: core:  2, cta: 2 initialized @(3,0)
GPGPU-Sim uArch: core:  3, cta: 2 initialized @(3,0)
GPGPU-Sim uArch: core:  4, cta: 2 initialized @(3,0)
GPGPU-Sim uArch: core:  5, cta: 2 initialized @(3,0)
GPGPU-Sim uArch: core:  6, cta: 2 initialized @(3,0)
GPGPU-Sim uArch: core:  7, cta: 2 initialized @(3,0)
GPGPU-Sim uArch: core:  8, cta: 2 initialized @(3,0)
GPGPU-Sim uArch: core:  9, cta: 2 initialized @(3,0)
GPGPU-Sim uArch: core: 10, cta: 2 initialized @(3,0)
GPGPU-Sim uArch: core: 11, cta: 2 initialized @(3,0)
GPGPU-Sim uArch: core: 12, cta: 2 initialized @(3,0)
GPGPU-Sim uArch: core: 13, cta: 2 initialized @(3,0)
GPGPU-Sim uArch: core: 14, cta: 2 initialized @(3,0)
GPGPU-Sim uArch: core:  0, cta: 2 initialized @(3,0)
GPGPU-Sim uArch: core:  1, cta: 3 initialized @(4,0)
GPGPU-Sim uArch: core:  2, cta: 3 initialized @(4,0)
GPGPU-Sim uArch: core:  3, cta: 3 initialized @(4,0)
GPGPU-Sim uArch: core:  4, cta: 3 initialized @(4,0)
GPGPU-Sim uArch: core:  5, cta: 3 initialized @(4,0)
GPGPU-Sim uArch: core:  6, cta: 3 initialized @(4,0)
GPGPU-Sim uArch: core:  7, cta: 3 initialized @(4,0)
GPGPU-Sim uArch: core:  8, cta: 3 initialized @(4,0)
GPGPU-Sim uArch: core:  9, cta: 3 initialized @(4,0)
GPGPU-Sim uArch: core: 10, cta: 3 initialized @(4,0)
GPGPU-Sim uArch: core: 11, cta: 3 initialized @(4,0)
GPGPU-Sim uArch: core: 12, cta: 3 initialized @(4,0)
GPGPU-Sim uArch: core: 13, cta: 3 initialized @(4,0)
GPGPU-Sim uArch: core: 14, cta: 3 initialized @(4,0)
GPGPU-Sim uArch: core:  0, cta: 3 initialized @(4,0)
GPGPU-Sim uArch: core:  1, cta: 4 initialized @(5,0)
GPGPU-Sim uArch: core:  2, cta: 4 initialized @(5,0)
GPGPU-Sim uArch: core:  3, cta: 4 initialized @(5,0)
GPGPU-Sim uArch: core:  4, cta: 4 initialized @(5,0)
GPGPU-Sim uArch: core:  5, cta: 4 initialized @(5,0)
GPGPU-Sim uArch: core:  6, cta: 4 initialized @(5,0)
GPGPU-Sim uArch: core:  7, cta: 4 initialized @(5,0)
GPGPU-Sim uArch: core:  8, cta: 4 initialized @(5,0)
GPGPU-Sim uArch: core:  9, cta: 4 initialized @(5,0)
GPGPU-Sim uArch: core: 10, cta: 4 initialized @(5,0)
GPGPU-Sim uArch: core: 11, cta: 4 initialized @(5,0)
GPGPU-Sim uArch: core: 12, cta: 4 initialized @(5,0)
GPGPU-Sim uArch: core: 13, cta: 4 initialized @(5,0)
GPGPU-Sim uArch: core: 14, cta: 4 initialized @(5,0)
GPGPU-Sim uArch: core:  0, cta: 4 initialized @(5,0)
GPGPU-Sim uArch: core:  1, cta: 5 initialized @(6,0)
GPGPU-Sim uArch: core:  2, cta: 5 initialized @(6,0)
GPGPU-Sim uArch: core:  3, cta: 5 initialized @(6,0)
GPGPU-Sim uArch: core:  4, cta: 5 initialized @(6,0)
GPGPU-Sim uArch: core:  5, cta: 5 initialized @(6,0)
GPGPU-Sim uArch: core:  6, cta: 5 initialized @(6,0)
GPGPU-Sim uArch: core:  7, cta: 5 initialized @(6,0)
GPGPU-Sim uArch: core:  8, cta: 5 initialized @(6,0)
GPGPU-Sim uArch: core:  9, cta: 5 initialized @(6,0)
GPGPU-Sim uArch: core: 10, cta: 5 initialized @(6,0)
GPGPU-Sim uArch: core: 11, cta: 5 initialized @(6,0)
GPGPU-Sim uArch: core: 12, cta: 5 initialized @(6,0)
GPGPU-Sim uArch: core: 13, cta: 5 initialized @(6,0)
GPGPU-Sim uArch: core: 14, cta: 5 initialized @(6,0)
GPGPU-Sim uArch: core:  0, cta: 5 initialized @(6,0)
GPGPU-Sim PTX: 100000 instructions simulated : ctaid=(68,0,0) tid=(63,0,0)
GPGPU-Sim uArch: cycles simulated: 500  inst.: 92160 (ipc=184.3) sim_rate=92160 (inst/sec) elapsed = 0:0:00:01 / Sun Feb 28 18:46:38 2016
GPGPU-Sim PTX: 200000 instructions simulated : ctaid=(53,0,0) tid=(95,0,0)
GPGPU-Sim uArch: cycles simulated: 1000  inst.: 249505 (ipc=249.5) sim_rate=124752 (inst/sec) elapsed = 0:0:00:02 / Sun Feb 28 18:46:39 2016
GPGPU-Sim PTX: 300000 instructions simulated : ctaid=(47,0,0) tid=(157,0,0)
GPGPU-Sim uArch: Shader 3 finished CTA #0 (1248,0), 5 CTAs running
GPGPU-Sim uArch: Shader 3 finished CTA #1 (1248,0), 4 CTAs running
GPGPU-Sim uArch: Shader 3 finished CTA #2 (1248,0), 3 CTAs running
GPGPU-Sim uArch: core:  3, cta: 0 initialized @(1249,0)
GPGPU-Sim uArch: core:  3, cta: 1 initialized @(1250,0)
GPGPU-Sim uArch: core:  3, cta: 2 initialized @(1251,0)
GPGPU-Sim uArch: Shader 0 finished CTA #0 (1259,0), 5 CTAs running
GPGPU-Sim uArch: Shader 0 finished CTA #1 (1259,0), 4 CTAs running
GPGPU-Sim uArch: Shader 0 finished CTA #2 (1259,0), 3 CTAs running
GPGPU-Sim uArch: core:  0, cta: 0 initialized @(1260,0)
GPGPU-Sim uArch: Shader 4 finished CTA #0 (1260,0), 5 CTAs running
GPGPU-Sim uArch: Shader 4 finished CTA #1 (1260,0), 4 CTAs running
GPGPU-Sim uArch: Shader 4 finished CTA #2 (1260,0), 3 CTAs running
GPGPU-Sim uArch: core:  4, cta: 0 initialized @(1261,0)
GPGPU-Sim uArch: core:  0, cta: 1 initialized @(1261,0)
GPGPU-Sim uArch: core:  4, cta: 1 initialized @(1262,0)
GPGPU-Sim uArch: core:  0, cta: 2 initialized @(1262,0)
GPGPU-Sim uArch: core:  4, cta: 2 initialized @(1263,0)
GPGPU-Sim uArch: Shader 2 finished CTA #0 (1263,0), 5 CTAs running
GPGPU-Sim uArch: Shader 2 finished CTA #1 (1263,0), 4 CTAs running
GPGPU-Sim uArch: Shader 2 finished CTA #2 (1263,0), 3 CTAs running
GPGPU-Sim uArch: Shader 2 finished CTA #3 (1263,0), 2 CTAs running
GPGPU-Sim uArch: core:  2, cta: 0 initialized @(1264,0)
GPGPU-Sim uArch: core:  2, cta: 1 initialized @(1265,0)
GPGPU-Sim uArch: core:  2, cta: 2 initialized @(1266,0)
GPGPU-Sim uArch: core:  2, cta: 3 initialized @(1267,0)
GPGPU-Sim uArch: Shader 5 finished CTA #0 (1268,0), 5 CTAs running
GPGPU-Sim uArch: Shader 5 finished CTA #1 (1268,0), 4 CTAs running
GPGPU-Sim uArch: Shader 5 finished CTA #2 (1268,0), 3 CTAs running
GPGPU-Sim uArch: core:  5, cta: 0 initialized @(1269,0)
GPGPU-Sim uArch: core:  5, cta: 1 initialized @(1270,0)
GPGPU-Sim uArch: core:  5, cta: 2 initialized @(1271,0)
GPGPU-Sim uArch: Shader 6 finished CTA #0 (1280,0), 5 CTAs running
GPGPU-Sim uArch: Shader 6 finished CTA #1 (1280,0), 4 CTAs running
GPGPU-Sim uArch: core:  6, cta: 0 initialized @(1281,0)
GPGPU-Sim uArch: Shader 1 finished CTA #1 (1281,0), 5 CTAs running
GPGPU-Sim uArch: Shader 1 finished CTA #2 (1281,0), 4 CTAs running
GPGPU-Sim uArch: Shader 1 finished CTA #3 (1281,0), 3 CTAs running
GPGPU-Sim uArch: core:  1, cta: 1 initialized @(1282,0)
GPGPU-Sim uArch: core:  6, cta: 1 initialized @(1282,0)
GPGPU-Sim uArch: Shader 3 finished CTA #3 (1282,0), 5 CTAs running
GPGPU-Sim uArch: Shader 3 finished CTA #4 (1282,0), 4 CTAs running
GPGPU-Sim uArch: Shader 3 finished CTA #5 (1282,0), 3 CTAs running
GPGPU-Sim uArch: core:  1, cta: 2 initialized @(1283,0)
GPGPU-Sim uArch: core:  3, cta: 3 initialized @(1283,0)
GPGPU-Sim uArch: core:  1, cta: 3 initialized @(1284,0)
GPGPU-Sim uArch: core:  3, cta: 4 initialized @(1284,0)
GPGPU-Sim uArch: core:  3, cta: 5 initialized @(1285,0)
GPGPU-Sim uArch: Shader 7 finished CTA #0 (1290,0), 5 CTAs running
GPGPU-Sim uArch: Shader 7 finished CTA #1 (1290,0), 4 CTAs running
GPGPU-Sim uArch: Shader 7 finished CTA #2 (1290,0), 3 CTAs running
GPGPU-Sim uArch: core:  7, cta: 0 initialized @(1291,0)
GPGPU-Sim uArch: core:  7, cta: 1 initialized @(1292,0)
GPGPU-Sim uArch: core:  7, cta: 2 initialized @(1293,0)
GPGPU-Sim uArch: Shader 0 finished CTA #3 (1294,0), 5 CTAs running
GPGPU-Sim uArch: Shader 0 finished CTA #4 (1294,0), 4 CTAs running
GPGPU-Sim uArch: Shader 0 finished CTA #5 (1294,0), 3 CTAs running
GPGPU-Sim uArch: core:  0, cta: 3 initialized @(1295,0)
GPGPU-Sim uArch: Shader 9 finished CTA #0 (1295,0), 5 CTAs running
GPGPU-Sim uArch: Shader 9 finished CTA #1 (1295,0), 4 CTAs running
GPGPU-Sim uArch: Shader 9 finished CTA #2 (1295,0), 3 CTAs running
GPGPU-Sim uArch: core:  9, cta: 0 initialized @(1296,0)
GPGPU-Sim uArch: core:  0, cta: 4 initialized @(1296,0)
GPGPU-Sim uArch: Shader 2 finished CTA #4 (1296,0), 5 CTAs running
GPGPU-Sim uArch: Shader 2 finished CTA #5 (1296,0), 4 CTAs running
GPGPU-Sim uArch: core:  2, cta: 4 initialized @(1297,0)
GPGPU-Sim uArch: core:  9, cta: 1 initialized @(1297,0)
GPGPU-Sim uArch: core:  0, cta: 5 initialized @(1297,0)
GPGPU-Sim uArch: core:  2, cta: 5 initialized @(1298,0)
GPGPU-Sim uArch: core:  9, cta: 2 initialized @(1298,0)
GPGPU-Sim uArch: Shader 4 finished CTA #3 (1300,0), 5 CTAs running
GPGPU-Sim uArch: Shader 4 finished CTA #4 (1300,0), 4 CTAs running
GPGPU-Sim uArch: Shader 4 finished CTA #5 (1300,0), 3 CTAs running
GPGPU-Sim uArch: core:  4, cta: 3 initialized @(1301,0)
GPGPU-Sim uArch: core:  4, cta: 4 initialized @(1302,0)
GPGPU-Sim uArch: core:  4, cta: 5 initialized @(1303,0)
GPGPU-Sim uArch: Shader 5 finished CTA #3 (1306,0), 5 CTAs running
GPGPU-Sim uArch: Shader 5 finished CTA #4 (1306,0), 4 CTAs running
GPGPU-Sim uArch: Shader 5 finished CTA #5 (1306,0), 3 CTAs running
GPGPU-Sim uArch: Shader 13 finished CTA #0 (1306,0), 5 CTAs running
GPGPU-Sim uArch: Shader 13 finished CTA #1 (1306,0), 4 CTAs running
GPGPU-Sim uArch: Shader 13 finished CTA #2 (1306,0), 3 CTAs running
GPGPU-Sim uArch: core:  5, cta: 3 initialized @(1307,0)
GPGPU-Sim uArch: core: 13, cta: 0 initialized @(1307,0)
GPGPU-Sim uArch: core:  5, cta: 4 initialized @(1308,0)
GPGPU-Sim uArch: core: 13, cta: 1 initialized @(1308,0)
GPGPU-Sim uArch: core:  5, cta: 5 initialized @(1309,0)
GPGPU-Sim uArch: core: 13, cta: 2 initialized @(1309,0)
GPGPU-Sim uArch: Shader 6 finished CTA #2 (1310,0), 5 CTAs running
GPGPU-Sim uArch: Shader 6 finished CTA #3 (1310,0), 4 CTAs running
GPGPU-Sim uArch: Shader 6 finished CTA #4 (1310,0), 3 CTAs running
GPGPU-Sim uArch: Shader 6 finished CTA #5 (1310,0), 2 CTAs running
GPGPU-Sim uArch: Shader 8 finished CTA #0 (1310,0), 5 CTAs running
GPGPU-Sim uArch: Shader 8 finished CTA #1 (1310,0), 4 CTAs running
GPGPU-Sim uArch: Shader 8 finished CTA #2 (1310,0), 3 CTAs running
GPGPU-Sim uArch: core:  6, cta: 2 initialized @(1311,0)
GPGPU-Sim uArch: core:  8, cta: 0 initialized @(1311,0)
GPGPU-Sim uArch: core:  6, cta: 3 initialized @(1312,0)
GPGPU-Sim uArch: core:  8, cta: 1 initialized @(1312,0)
GPGPU-Sim uArch: Shader 8 finished CTA #4 (1312,0), 4 CTAs running
GPGPU-Sim uArch: Shader 10 finished CTA #0 (1312,0), 5 CTAs running
GPGPU-Sim uArch: Shader 10 finished CTA #1 (1312,0), 4 CTAs running
GPGPU-Sim uArch: Shader 10 finished CTA #2 (1312,0), 3 CTAs running
GPGPU-Sim uArch: core: 10, cta: 0 initialized @(1313,0)
GPGPU-Sim uArch: core:  6, cta: 4 initialized @(1313,0)
GPGPU-Sim uArch: core:  8, cta: 2 initialized @(1313,0)
GPGPU-Sim uArch: Shader 1 finished CTA #4 (1313,0), 5 CTAs running
GPGPU-Sim uArch: Shader 1 finished CTA #5 (1313,0), 4 CTAs running
GPGPU-Sim uArch: core: 10, cta: 1 initialized @(1314,0)
GPGPU-Sim uArch: core:  1, cta: 4 initialized @(1314,0)
GPGPU-Sim uArch: core:  6, cta: 5 initialized @(1314,0)
GPGPU-Sim uArch: core:  8, cta: 4 initialized @(1314,0)
GPGPU-Sim uArch: core: 10, cta: 2 initialized @(1315,0)
GPGPU-Sim uArch: core:  1, cta: 5 initialized @(1315,0)
GPGPU-Sim uArch: Shader 12 finished CTA #0 (1323,0), 5 CTAs running
GPGPU-Sim uArch: Shader 12 finished CTA #1 (1323,0), 4 CTAs running
GPGPU-Sim uArch: Shader 12 finished CTA #2 (1323,0), 3 CTAs running
GPGPU-Sim uArch: Shader 12 finished CTA #3 (1323,0), 2 CTAs running
GPGPU-Sim uArch: core: 12, cta: 0 initialized @(1324,0)
GPGPU-Sim uArch: Shader 7 finished CTA #3 (1324,0), 5 CTAs running
GPGPU-Sim uArch: Shader 7 finished CTA #4 (1324,0), 4 CTAs running
GPGPU-Sim uArch: Shader 7 finished CTA #5 (1324,0), 3 CTAs running
GPGPU-Sim uArch: core:  7, cta: 3 initialized @(1325,0)
GPGPU-Sim uArch: core: 12, cta: 1 initialized @(1325,0)
GPGPU-Sim uArch: core:  7, cta: 4 initialized @(1326,0)
GPGPU-Sim uArch: core: 12, cta: 2 initialized @(1326,0)
GPGPU-Sim uArch: Shader 14 finished CTA #0 (1326,0), 5 CTAs running
GPGPU-Sim uArch: Shader 14 finished CTA #1 (1326,0), 4 CTAs running
GPGPU-Sim uArch: Shader 14 finished CTA #2 (1326,0), 3 CTAs running
GPGPU-Sim uArch: core: 14, cta: 0 initialized @(1327,0)
GPGPU-Sim uArch: core:  7, cta: 5 initialized @(1327,0)
GPGPU-Sim uArch: core: 12, cta: 3 initialized @(1327,0)
GPGPU-Sim uArch: core: 14, cta: 1 initialized @(1328,0)
GPGPU-Sim uArch: core: 14, cta: 2 initialized @(1329,0)
GPGPU-Sim uArch: Shader 9 finished CTA #3 (1330,0), 5 CTAs running
GPGPU-Sim uArch: Shader 9 finished CTA #4 (1330,0), 4 CTAs running
GPGPU-Sim uArch: Shader 9 finished CTA #5 (1330,0), 3 CTAs running
GPGPU-Sim uArch: Shader 12 finished CTA #5 (1330,0), 5 CTAs running
GPGPU-Sim uArch: core:  9, cta: 3 initialized @(1331,0)
GPGPU-Sim uArch: core: 12, cta: 5 initialized @(1331,0)
GPGPU-Sim uArch: Shader 11 finished CTA #0 (1331,0), 5 CTAs running
GPGPU-Sim uArch: Shader 11 finished CTA #1 (1331,0), 4 CTAs running
GPGPU-Sim uArch: Shader 11 finished CTA #2 (1331,0), 3 CTAs running
GPGPU-Sim uArch: core:  9, cta: 4 initialized @(1332,0)
GPGPU-Sim uArch: core: 11, cta: 0 initialized @(1332,0)
GPGPU-Sim uArch: core:  9, cta: 5 initialized @(1333,0)
GPGPU-Sim uArch: core: 11, cta: 1 initialized @(1333,0)
GPGPU-Sim uArch: core: 11, cta: 2 initialized @(1334,0)
GPGPU-Sim uArch: Shader 8 finished CTA #3 (1336,0), 5 CTAs running
GPGPU-Sim uArch: core:  8, cta: 3 initialized @(1337,0)
GPGPU-Sim uArch: Shader 13 finished CTA #3 (1342,0), 5 CTAs running
GPGPU-Sim uArch: Shader 13 finished CTA #4 (1342,0), 4 CTAs running
GPGPU-Sim uArch: Shader 13 finished CTA #5 (1342,0), 3 CTAs running
GPGPU-Sim uArch: core: 13, cta: 3 initialized @(1343,0)
GPGPU-Sim uArch: core: 13, cta: 4 initialized @(1344,0)
GPGPU-Sim uArch: Shader 8 finished CTA #5 (1344,0), 5 CTAs running
GPGPU-Sim uArch: core:  8, cta: 5 initialized @(1345,0)
GPGPU-Sim uArch: core: 13, cta: 5 initialized @(1345,0)
GPGPU-Sim uArch: Shader 10 finished CTA #3 (1348,0), 5 CTAs running
GPGPU-Sim uArch: Shader 10 finished CTA #4 (1348,0), 4 CTAs running
GPGPU-Sim uArch: Shader 10 finished CTA #5 (1348,0), 3 CTAs running
GPGPU-Sim uArch: core: 10, cta: 3 initialized @(1349,0)
GPGPU-Sim uArch: core: 10, cta: 4 initialized @(1350,0)
GPGPU-Sim uArch: core: 10, cta: 5 initialized @(1351,0)
GPGPU-Sim uArch: Shader 14 finished CTA #3 (1360,0), 5 CTAs running
GPGPU-Sim uArch: Shader 14 finished CTA #4 (1360,0), 4 CTAs running
GPGPU-Sim uArch: Shader 14 finished CTA #5 (1360,0), 3 CTAs running
GPGPU-Sim uArch: core: 14, cta: 3 initialized @(1361,0)
GPGPU-Sim uArch: core: 14, cta: 4 initialized @(1362,0)
GPGPU-Sim uArch: Shader 12 finished CTA #4 (1362,0), 5 CTAs running
GPGPU-Sim uArch: core: 12, cta: 4 initialized @(1363,0)
GPGPU-Sim uArch: core: 14, cta: 5 initialized @(1363,0)
GPGPU-Sim uArch: Shader 11 finished CTA #3 (1366,0), 5 CTAs running
GPGPU-Sim uArch: Shader 11 finished CTA #4 (1366,0), 4 CTAs running
GPGPU-Sim uArch: Shader 11 finished CTA #5 (1366,0), 3 CTAs running
GPGPU-Sim PTX: 400000 instructions simulated : ctaid=(154,0,0) tid=(86,0,0)
GPGPU-Sim uArch: core: 11, cta: 3 initialized @(1367,0)
GPGPU-Sim uArch: core: 11, cta: 4 initialized @(1368,0)
GPGPU-Sim uArch: core: 11, cta: 5 initialized @(1369,0)
GPGPU-Sim PTX: 500000 instructions simulated : ctaid=(139,0,0) tid=(21,0,0)
GPGPU-Sim uArch: cycles simulated: 1500  inst.: 473448 (ipc=315.6) sim_rate=157816 (inst/sec) elapsed = 0:0:00:03 / Sun Feb 28 18:46:40 2016
GPGPU-Sim PTX: 600000 instructions simulated : ctaid=(167,0,0) tid=(149,0,0)
GPGPU-Sim uArch: Shader 1 finished CTA #1 (1741,0), 5 CTAs running
GPGPU-Sim uArch: Shader 3 finished CTA #0 (1741,0), 5 CTAs running
GPGPU-Sim uArch: core:  1, cta: 1 initialized @(1742,0)
GPGPU-Sim uArch: core:  3, cta: 0 initialized @(1742,0)
GPGPU-Sim uArch: Shader 2 finished CTA #0 (1747,0), 5 CTAs running
GPGPU-Sim uArch: core:  2, cta: 0 initialized @(1748,0)
GPGPU-Sim uArch: Shader 4 finished CTA #0 (1761,0), 5 CTAs running
GPGPU-Sim uArch: core:  4, cta: 0 initialized @(1762,0)
GPGPU-Sim uArch: Shader 0 finished CTA #1 (1770,0), 5 CTAs running
GPGPU-Sim uArch: core:  0, cta: 1 initialized @(1771,0)
GPGPU-Sim uArch: Shader 6 finished CTA #0 (1772,0), 5 CTAs running
GPGPU-Sim uArch: core:  6, cta: 0 initialized @(1773,0)
GPGPU-Sim uArch: Shader 0 finished CTA #0 (1777,0), 5 CTAs running
GPGPU-Sim uArch: core:  0, cta: 0 initialized @(1778,0)
GPGPU-Sim uArch: Shader 1 finished CTA #2 (1779,0), 5 CTAs running
GPGPU-Sim uArch: Shader 1 finished CTA #3 (1779,0), 4 CTAs running
GPGPU-Sim uArch: Shader 3 finished CTA #1 (1779,0), 5 CTAs running
GPGPU-Sim uArch: Shader 3 finished CTA #2 (1779,0), 4 CTAs running
GPGPU-Sim uArch: core:  1, cta: 2 initialized @(1780,0)
GPGPU-Sim uArch: core:  3, cta: 1 initialized @(1780,0)
GPGPU-Sim uArch: core:  1, cta: 3 initialized @(1781,0)
GPGPU-Sim uArch: core:  3, cta: 2 initialized @(1781,0)
GPGPU-Sim uArch: Shader 4 finished CTA #1 (1783,0), 5 CTAs running
GPGPU-Sim uArch: core:  4, cta: 1 initialized @(1784,0)
GPGPU-Sim uArch: Shader 0 finished CTA #2 (1785,0), 5 CTAs running
GPGPU-Sim uArch: core:  0, cta: 2 initialized @(1786,0)
GPGPU-Sim uArch: Shader 5 finished CTA #0 (1786,0), 5 CTAs running
GPGPU-Sim uArch: Shader 6 finished CTA #1 (1786,0), 5 CTAs running
GPGPU-Sim uArch: core:  5, cta: 0 initialized @(1787,0)
GPGPU-Sim uArch: core:  6, cta: 1 initialized @(1787,0)
GPGPU-Sim uArch: Shader 9 finished CTA #0 (1788,0), 5 CTAs running
GPGPU-Sim uArch: core:  9, cta: 0 initialized @(1789,0)
GPGPU-Sim uArch: Shader 2 finished CTA #1 (1797,0), 5 CTAs running
GPGPU-Sim uArch: Shader 2 finished CTA #2 (1797,0), 4 CTAs running
GPGPU-Sim uArch: core:  2, cta: 1 initialized @(1798,0)
GPGPU-Sim uArch: core:  2, cta: 2 initialized @(1799,0)
GPGPU-Sim uArch: Shader 5 finished CTA #1 (1802,0), 5 CTAs running
GPGPU-Sim uArch: Shader 5 finished CTA #2 (1802,0), 4 CTAs running
GPGPU-Sim uArch: core:  5, cta: 1 initialized @(1803,0)
GPGPU-Sim uArch: core:  5, cta: 2 initialized @(1804,0)
GPGPU-Sim uArch: Shader 8 finished CTA #0 (1804,0), 5 CTAs running
GPGPU-Sim uArch: core:  8, cta: 0 initialized @(1805,0)
GPGPU-Sim uArch: Shader 4 finished CTA #2 (1805,0), 5 CTAs running
GPGPU-Sim uArch: core:  4, cta: 2 initialized @(1806,0)
GPGPU-Sim uArch: Shader 7 finished CTA #0 (1810,0), 5 CTAs running
GPGPU-Sim uArch: Shader 13 finished CTA #0 (1810,0), 5 CTAs running
GPGPU-Sim uArch: core:  7, cta: 0 initialized @(1811,0)
GPGPU-Sim uArch: core: 13, cta: 0 initialized @(1811,0)
GPGPU-Sim uArch: Shader 10 finished CTA #0 (1819,0), 5 CTAs running
GPGPU-Sim uArch: core: 10, cta: 0 initialized @(1820,0)
GPGPU-Sim uArch: Shader 8 finished CTA #1 (1820,0), 5 CTAs running
GPGPU-Sim uArch: core:  8, cta: 1 initialized @(1821,0)
GPGPU-Sim uArch: Shader 12 finished CTA #0 (1823,0), 5 CTAs running
GPGPU-Sim uArch: core: 12, cta: 0 initialized @(1824,0)
GPGPU-Sim uArch: Shader 9 finished CTA #1 (1824,0), 5 CTAs running
GPGPU-Sim uArch: core:  9, cta: 1 initialized @(1825,0)
GPGPU-Sim uArch: Shader 2 finished CTA #3 (1825,0), 5 CTAs running
GPGPU-Sim uArch: core:  2, cta: 3 initialized @(1826,0)
GPGPU-Sim uArch: Shader 7 finished CTA #1 (1826,0), 5 CTAs running
GPGPU-Sim uArch: Shader 7 finished CTA #2 (1826,0), 4 CTAs running
GPGPU-Sim uArch: core:  7, cta: 1 initialized @(1827,0)
GPGPU-Sim uArch: core:  7, cta: 2 initialized @(1828,0)
GPGPU-Sim uArch: Shader 11 finished CTA #0 (1833,0), 5 CTAs running
GPGPU-Sim uArch: core: 11, cta: 0 initialized @(1834,0)
GPGPU-Sim uArch: Shader 9 finished CTA #2 (1837,0), 5 CTAs running
GPGPU-Sim uArch: core:  9, cta: 2 initialized @(1838,0)
GPGPU-Sim uArch: Shader 11 finished CTA #1 (1853,0), 5 CTAs running
GPGPU-Sim uArch: core: 11, cta: 1 initialized @(1854,0)
GPGPU-Sim uArch: Shader 13 finished CTA #1 (1854,0), 5 CTAs running
GPGPU-Sim uArch: Shader 13 finished CTA #2 (1854,0), 4 CTAs running
GPGPU-Sim uArch: core: 13, cta: 1 initialized @(1855,0)
GPGPU-Sim uArch: core: 13, cta: 2 initialized @(1856,0)
GPGPU-Sim PTX: 700000 instructions simulated : ctaid=(122,0,0) tid=(109,0,0)
GPGPU-Sim uArch: Shader 3 finished CTA #3 (1864,0), 5 CTAs running
GPGPU-Sim uArch: core:  3, cta: 3 initialized @(1865,0)
GPGPU-Sim uArch: Shader 12 finished CTA #2 (1871,0), 5 CTAs running
GPGPU-Sim uArch: core: 12, cta: 2 initialized @(1872,0)
GPGPU-Sim uArch: Shader 11 finished CTA #2 (1875,0), 5 CTAs running
GPGPU-Sim uArch: core: 11, cta: 2 initialized @(1876,0)
GPGPU-Sim uArch: Shader 1 finished CTA #4 (1878,0), 5 CTAs running
GPGPU-Sim uArch: core:  1, cta: 4 initialized @(1879,0)
GPGPU-Sim uArch: Shader 10 finished CTA #1 (1879,0), 5 CTAs running
GPGPU-Sim uArch: Shader 10 finished CTA #2 (1879,0), 4 CTAs running
GPGPU-Sim uArch: Shader 14 finished CTA #1 (1879,0), 5 CTAs running
GPGPU-Sim uArch: core: 10, cta: 1 initialized @(1880,0)
GPGPU-Sim uArch: core: 14, cta: 1 initialized @(1880,0)
GPGPU-Sim uArch: core: 10, cta: 2 initialized @(1881,0)
GPGPU-Sim uArch: Shader 8 finished CTA #2 (1882,0), 5 CTAs running
GPGPU-Sim uArch: core:  8, cta: 2 initialized @(1883,0)
GPGPU-Sim uArch: Shader 12 finished CTA #1 (1883,0), 5 CTAs running
GPGPU-Sim uArch: core: 12, cta: 1 initialized @(1884,0)
GPGPU-Sim uArch: Shader 8 finished CTA #4 (1886,0), 5 CTAs running
GPGPU-Sim uArch: core:  8, cta: 4 initialized @(1887,0)
GPGPU-Sim uArch: Shader 4 finished CTA #3 (1891,0), 5 CTAs running
GPGPU-Sim uArch: Shader 6 finished CTA #2 (1891,0), 5 CTAs running
GPGPU-Sim uArch: Shader 6 finished CTA #3 (1891,0), 4 CTAs running
GPGPU-Sim uArch: Shader 12 finished CTA #3 (1891,0), 5 CTAs running
GPGPU-Sim uArch: core: 12, cta: 3 initialized @(1892,0)
GPGPU-Sim uArch: core:  4, cta: 3 initialized @(1892,0)
GPGPU-Sim uArch: core:  6, cta: 2 initialized @(1892,0)
GPGPU-Sim uArch: Shader 14 finished CTA #0 (1892,0), 5 CTAs running
GPGPU-Sim uArch: core: 14, cta: 0 initialized @(1893,0)
GPGPU-Sim uArch: core:  6, cta: 3 initialized @(1893,0)
GPGPU-Sim uArch: Shader 14 finished CTA #2 (1900,0), 5 CTAs running
GPGPU-Sim uArch: core: 14, cta: 2 initialized @(1901,0)
GPGPU-Sim uArch: Shader 0 finished CTA #3 (1906,0), 5 CTAs running
GPGPU-Sim uArch: core:  0, cta: 3 initialized @(1907,0)
GPGPU-Sim uArch: Shader 10 finished CTA #3 (1915,0), 5 CTAs running
GPGPU-Sim uArch: core: 10, cta: 3 initialized @(1916,0)
GPGPU-Sim uArch: Shader 1 finished CTA #5 (1918,0), 5 CTAs running
GPGPU-Sim uArch: core:  1, cta: 5 initialized @(1919,0)
GPGPU-Sim uArch: Shader 7 finished CTA #3 (1920,0), 5 CTAs running
GPGPU-Sim uArch: core:  7, cta: 3 initialized @(1921,0)
GPGPU-Sim uArch: Shader 13 finished CTA #3 (1923,0), 5 CTAs running
GPGPU-Sim uArch: core: 13, cta: 3 initialized @(1924,0)
GPGPU-Sim uArch: Shader 14 finished CTA #3 (1928,0), 5 CTAs running
GPGPU-Sim uArch: core: 14, cta: 3 initialized @(1929,0)
GPGPU-Sim uArch: Shader 9 finished CTA #3 (1929,0), 5 CTAs running
GPGPU-Sim uArch: core:  9, cta: 3 initialized @(1930,0)
GPGPU-Sim uArch: Shader 5 finished CTA #4 (1930,0), 5 CTAs running
GPGPU-Sim uArch: core:  5, cta: 4 initialized @(1931,0)
GPGPU-Sim uArch: Shader 4 finished CTA #4 (1935,0), 5 CTAs running
GPGPU-Sim uArch: core:  4, cta: 4 initialized @(1936,0)
GPGPU-Sim uArch: Shader 6 finished CTA #4 (1936,0), 5 CTAs running
GPGPU-Sim uArch: core:  6, cta: 4 initialized @(1937,0)
GPGPU-Sim uArch: Shader 2 finished CTA #4 (1937,0), 5 CTAs running
GPGPU-Sim uArch: core:  2, cta: 4 initialized @(1938,0)
GPGPU-Sim uArch: Shader 0 finished CTA #4 (1950,0), 5 CTAs running
GPGPU-Sim uArch: Shader 0 finished CTA #5 (1950,0), 4 CTAs running
GPGPU-Sim uArch: Shader 3 finished CTA #4 (1950,0), 5 CTAs running
GPGPU-Sim uArch: Shader 3 finished CTA #5 (1950,0), 4 CTAs running
GPGPU-Sim uArch: core:  3, cta: 4 initialized @(1951,0)
GPGPU-Sim uArch: core:  0, cta: 4 initialized @(1951,0)
GPGPU-Sim uArch: core:  3, cta: 5 initialized @(1952,0)
GPGPU-Sim uArch: core:  0, cta: 5 initialized @(1952,0)
GPGPU-Sim uArch: Shader 5 finished CTA #3 (1962,0), 5 CTAs running
GPGPU-Sim uArch: core:  5, cta: 3 initialized @(1963,0)
GPGPU-Sim uArch: Shader 7 finished CTA #4 (1963,0), 5 CTAs running
GPGPU-Sim uArch: core:  7, cta: 4 initialized @(1964,0)
GPGPU-Sim uArch: Shader 13 finished CTA #4 (1964,0), 5 CTAs running
GPGPU-Sim uArch: core: 13, cta: 4 initialized @(1965,0)
GPGPU-Sim uArch: Shader 5 finished CTA #5 (1970,0), 5 CTAs running
GPGPU-Sim uArch: core:  5, cta: 5 initialized @(1971,0)
GPGPU-Sim uArch: Shader 9 finished CTA #4 (1973,0), 5 CTAs running
GPGPU-Sim uArch: Shader 11 finished CTA #3 (1973,0), 5 CTAs running
GPGPU-Sim uArch: core:  9, cta: 4 initialized @(1974,0)
GPGPU-Sim uArch: core: 11, cta: 3 initialized @(1974,0)
GPGPU-Sim uArch: Shader 4 finished CTA #5 (1980,0), 5 CTAs running
GPGPU-Sim uArch: core:  4, cta: 5 initialized @(1981,0)
GPGPU-Sim uArch: Shader 2 finished CTA #5 (1981,0), 5 CTAs running
GPGPU-Sim uArch: Shader 6 finished CTA #5 (1981,0), 5 CTAs running
GPGPU-Sim PTX: 800000 instructions simulated : ctaid=(236,0,0) tid=(75,0,0)
GPGPU-Sim uArch: core:  6, cta: 5 initialized @(1982,0)
GPGPU-Sim uArch: core:  2, cta: 5 initialized @(1982,0)
GPGPU-Sim uArch: Shader 8 finished CTA #3 (1993,0), 5 CTAs running
GPGPU-Sim uArch: core:  8, cta: 3 initialized @(1994,0)
GPGPU-Sim uArch: Shader 10 finished CTA #4 (1998,0), 5 CTAs running
GPGPU-Sim uArch: Shader 7 finished CTA #5 (2006,0), 5 CTAs running
GPGPU-Sim uArch: Shader 12 finished CTA #5 (2011,0), 5 CTAs running
GPGPU-Sim uArch: Shader 13 finished CTA #5 (2012,0), 5 CTAs running
GPGPU-Sim uArch: Shader 9 finished CTA #5 (2014,0), 5 CTAs running
GPGPU-Sim uArch: Shader 14 finished CTA #4 (2014,0), 5 CTAs running
GPGPU-Sim uArch: Shader 14 finished CTA #5 (2014,0), 4 CTAs running
GPGPU-Sim uArch: Shader 11 finished CTA #4 (2017,0), 5 CTAs running
GPGPU-Sim uArch: Shader 11 finished CTA #5 (2017,0), 4 CTAs running
GPGPU-Sim uArch: Shader 10 finished CTA #5 (2034,0), 4 CTAs running
GPGPU-Sim uArch: Shader 8 finished CTA #5 (2042,0), 5 CTAs running
GPGPU-Sim uArch: Shader 12 finished CTA #4 (2043,0), 4 CTAs running
GPGPU-Sim PTX: 900000 instructions simulated : ctaid=(237,0,0) tid=(203,0,0)
GPGPU-Sim uArch: Shader 1 finished CTA #1 (2177,0), 5 CTAs running
GPGPU-Sim uArch: Shader 6 finished CTA #0 (2200,0), 5 CTAs running
GPGPU-Sim uArch: Shader 4 finished CTA #0 (2202,0), 5 CTAs running
GPGPU-Sim uArch: Shader 2 finished CTA #0 (2203,0), 5 CTAs running
GPGPU-Sim uArch: Shader 3 finished CTA #0 (2209,0), 5 CTAs running
GPGPU-Sim uArch: Shader 1 finished CTA #2 (2220,0), 4 CTAs running
GPGPU-Sim uArch: Shader 0 finished CTA #1 (2226,0), 5 CTAs running
GPGPU-Sim uArch: Shader 5 finished CTA #0 (2233,0), 5 CTAs running
GPGPU-Sim uArch: Shader 9 finished CTA #0 (2233,0), 4 CTAs running
GPGPU-Sim uArch: Shader 6 finished CTA #1 (2243,0), 4 CTAs running
GPGPU-Sim uArch: Shader 0 finished CTA #0 (2245,0), 4 CTAs running
GPGPU-Sim uArch: Shader 3 finished CTA #1 (2262,0), 4 CTAs running
GPGPU-Sim uArch: Shader 10 finished CTA #0 (2265,0), 3 CTAs running
GPGPU-Sim uArch: Shader 13 finished CTA #0 (2267,0), 4 CTAs running
GPGPU-Sim uArch: Shader 8 finished CTA #0 (2270,0), 4 CTAs running
GPGPU-Sim uArch: Shader 12 finished CTA #0 (2271,0), 3 CTAs running
GPGPU-Sim uArch: Shader 4 finished CTA #1 (2273,0), 4 CTAs running
GPGPU-Sim uArch: Shader 5 finished CTA #1 (2273,0), 4 CTAs running
GPGPU-Sim uArch: Shader 11 finished CTA #0 (2281,0), 3 CTAs running
GPGPU-Sim uArch: Shader 2 finished CTA #1 (2282,0), 4 CTAs running
GPGPU-Sim uArch: Shader 1 finished CTA #3 (2283,0), 3 CTAs running
GPGPU-Sim uArch: Shader 2 finished CTA #2 (2292,0), 3 CTAs running
GPGPU-Sim uArch: Shader 3 finished CTA #2 (2295,0), 3 CTAs running
GPGPU-Sim uArch: Shader 7 finished CTA #0 (2303,0), 4 CTAs running
GPGPU-Sim uArch: Shader 9 finished CTA #1 (2314,0), 3 CTAs running
GPGPU-Sim uArch: Shader 5 finished CTA #2 (2322,0), 3 CTAs running
GPGPU-Sim uArch: Shader 9 finished CTA #2 (2324,0), 2 CTAs running
GPGPU-Sim uArch: Shader 4 finished CTA #2 (2326,0), 3 CTAs running
GPGPU-Sim uArch: Shader 0 finished CTA #2 (2328,0), 3 CTAs running
GPGPU-Sim uArch: Shader 7 finished CTA #1 (2331,0), 3 CTAs running
GPGPU-Sim uArch: Shader 7 finished CTA #2 (2333,0), 2 CTAs running
GPGPU-Sim uArch: Shader 8 finished CTA #1 (2333,0), 3 CTAs running
GPGPU-Sim uArch: Shader 1 finished CTA #4 (2337,0), 2 CTAs running
GPGPU-Sim uArch: Shader 11 finished CTA #1 (2349,0), 2 CTAs running
GPGPU-Sim uArch: Shader 14 finished CTA #1 (2349,0), 3 CTAs running
GPGPU-Sim uArch: Shader 13 finished CTA #1 (2351,0), 3 CTAs running
GPGPU-Sim uArch: Shader 1 finished CTA #5 (2358,0), 1 CTAs running
GPGPU-Sim uArch: Shader 11 finished CTA #2 (2358,0), 1 CTAs running
GPGPU-Sim uArch: Shader 3 finished CTA #3 (2360,0), 2 CTAs running
GPGPU-Sim uArch: Shader 10 finished CTA #1 (2361,0), 2 CTAs running
GPGPU-Sim uArch: Shader 2 finished CTA #3 (2364,0), 2 CTAs running
GPGPU-Sim uArch: Shader 13 finished CTA #2 (2364,0), 2 CTAs running
GPGPU-Sim uArch: Shader 12 finished CTA #1 (2370,0), 2 CTAs running
GPGPU-Sim uArch: Shader 14 finished CTA #0 (2372,0), 2 CTAs running
GPGPU-Sim uArch: Shader 10 finished CTA #2 (2376,0), 1 CTAs running
GPGPU-Sim uArch: Shader 12 finished CTA #2 (2378,0), 1 CTAs running
GPGPU-Sim uArch: Shader 8 finished CTA #2 (2380,0), 2 CTAs running
GPGPU-Sim uArch: Shader 14 finished CTA #2 (2385,0), 1 CTAs running
GPGPU-Sim uArch: Shader 6 finished CTA #2 (2386,0), 3 CTAs running
GPGPU-Sim uArch: Shader 4 finished CTA #3 (2388,0), 2 CTAs running
GPGPU-Sim uArch: Shader 12 finished CTA #3 (2388,0), 0 CTAs running
GPGPU-Sim uArch: Shader 12 empty (release kernel 1 '_Z6KernelP4NodePiPbS2_S1_S2_i').
GPGPU-Sim uArch: Shader 0 finished CTA #3 (2391,0), 2 CTAs running
GPGPU-Sim uArch: Shader 8 finished CTA #4 (2393,0), 1 CTAs running
GPGPU-Sim uArch: Shader 6 finished CTA #3 (2395,0), 2 CTAs running
GPGPU-Sim uArch: Shader 10 finished CTA #3 (2395,0), 0 CTAs running
GPGPU-Sim uArch: Shader 10 empty (release kernel 1 '_Z6KernelP4NodePiPbS2_S1_S2_i').
GPGPU-Sim uArch: Shader 9 finished CTA #3 (2397,0), 1 CTAs running
GPGPU-Sim uArch: Shader 7 finished CTA #3 (2400,0), 1 CTAs running
GPGPU-Sim uArch: Shader 11 finished CTA #3 (2406,0), 0 CTAs running
GPGPU-Sim uArch: Shader 11 empty (release kernel 1 '_Z6KernelP4NodePiPbS2_S1_S2_i').
GPGPU-Sim uArch: Shader 3 finished CTA #4 (2409,0), 1 CTAs running
GPGPU-Sim uArch: Shader 2 finished CTA #4 (2412,0), 1 CTAs running
GPGPU-Sim uArch: Shader 13 finished CTA #3 (2413,0), 1 CTAs running
GPGPU-Sim uArch: Shader 4 finished CTA #4 (2423,0), 1 CTAs running
GPGPU-Sim uArch: Shader 7 finished CTA #4 (2425,0), 0 CTAs running
GPGPU-Sim uArch: Shader 7 empty (release kernel 1 '_Z6KernelP4NodePiPbS2_S1_S2_i').
GPGPU-Sim uArch: Shader 0 finished CTA #4 (2426,0), 1 CTAs running
GPGPU-Sim uArch: Shader 6 finished CTA #4 (2426,0), 1 CTAs running
GPGPU-Sim uArch: Shader 5 finished CTA #4 (2427,0), 2 CTAs running
GPGPU-Sim uArch: Shader 9 finished CTA #4 (2427,0), 0 CTAs running
GPGPU-Sim uArch: Shader 9 empty (release kernel 1 '_Z6KernelP4NodePiPbS2_S1_S2_i').
GPGPU-Sim uArch: Shader 14 finished CTA #3 (2427,0), 0 CTAs running
GPGPU-Sim uArch: Shader 14 empty (release kernel 1 '_Z6KernelP4NodePiPbS2_S1_S2_i').
GPGPU-Sim uArch: Shader 2 finished CTA #5 (2429,0), 0 CTAs running
GPGPU-Sim uArch: Shader 2 empty (release kernel 1 '_Z6KernelP4NodePiPbS2_S1_S2_i').
GPGPU-Sim uArch: Shader 3 finished CTA #5 (2431,0), 0 CTAs running
GPGPU-Sim uArch: Shader 3 empty (release kernel 1 '_Z6KernelP4NodePiPbS2_S1_S2_i').
GPGPU-Sim uArch: Shader 8 finished CTA #3 (2435,0), 0 CTAs running
GPGPU-Sim uArch: Shader 8 empty (release kernel 1 '_Z6KernelP4NodePiPbS2_S1_S2_i').
GPGPU-Sim uArch: Shader 0 finished CTA #5 (2439,0), 0 CTAs running
GPGPU-Sim uArch: Shader 0 empty (release kernel 1 '_Z6KernelP4NodePiPbS2_S1_S2_i').
GPGPU-Sim uArch: Shader 5 finished CTA #3 (2441,0), 1 CTAs running
GPGPU-Sim uArch: Shader 13 finished CTA #4 (2441,0), 0 CTAs running
GPGPU-Sim uArch: Shader 13 empty (release kernel 1 '_Z6KernelP4NodePiPbS2_S1_S2_i').
GPGPU-Sim uArch: Shader 4 finished CTA #5 (2442,0), 0 CTAs running
GPGPU-Sim uArch: Shader 4 empty (release kernel 1 '_Z6KernelP4NodePiPbS2_S1_S2_i').
GPGPU-Sim uArch: Shader 5 finished CTA #5 (2452,0), 0 CTAs running
GPGPU-Sim uArch: Shader 5 empty (release kernel 1 '_Z6KernelP4NodePiPbS2_S1_S2_i').
GPGPU-Sim uArch: Shader 6 finished CTA #5 (2467,0), 0 CTAs running
GPGPU-Sim uArch: Shader 6 empty (release kernel 1 '_Z6KernelP4NodePiPbS2_S1_S2_i').
GPGPU-Sim uArch: cycles simulated: 2500  inst.: 917494 (ipc=367.0) sim_rate=229373 (inst/sec) elapsed = 0:0:00:04 / Sun Feb 28 18:46:41 2016
GPGPU-Sim uArch: Shader 1 finished CTA #0 (5892,0), 0 CTAs running
GPGPU-Sim uArch: Shader 1 empty (release kernel 1 '_Z6KernelP4NodePiPbS2_S1_S2_i').
GPGPU-Sim uArch: GPU detected kernel '_Z6KernelP4NodePiPbS2_S1_S2_i' finished on shader 1.
GPGPU-Sim: synchronize waiting for inactive GPU simulation
kernel_name = _Z6KernelP4NodePiPbS2_S1_S2_i 
kernel_launch_uid = 1 
gpu_sim_cycle = 5893
gpu_sim_insn = 917736
gpu_ipc =     155.7332
gpu_tot_sim_cycle = 5893
gpu_tot_sim_insn = 917736
gpu_tot_ipc =     155.7332
gpu_tot_issued_cta = 256
gpu_stall_dramfull = 280
gpu_stall_icnt2sh    = 263
gpu_total_sim_rate=229434

========= Core cache stats =========
L1I_cache:
	L1I_total_cache_accesses = 18559
	L1I_total_cache_misses = 962
	L1I_total_cache_miss_rate = 0.0518
	L1I_total_cache_pending_hits = 0
	L1I_total_cache_reservation_fails = 6620
L1D_cache:
	L1D_cache_core[0]: Access = 144, Miss = 36, Miss_rate = 0.250, Pending_hits = 108, Reservation_fails = 0
	L1D_cache_core[1]: Access = 196, Miss = 68, Miss_rate = 0.347, Pending_hits = 96, Reservation_fails = 0
	L1D_cache_core[2]: Access = 144, Miss = 36, Miss_rate = 0.250, Pending_hits = 108, Reservation_fails = 0
	L1D_cache_core[3]: Access = 144, Miss = 36, Miss_rate = 0.250, Pending_hits = 108, Reservation_fails = 0
	L1D_cache_core[4]: Access = 144, Miss = 36, Miss_rate = 0.250, Pending_hits = 108, Reservation_fails = 0
	L1D_cache_core[5]: Access = 144, Miss = 36, Miss_rate = 0.250, Pending_hits = 108, Reservation_fails = 0
	L1D_cache_core[6]: Access = 144, Miss = 36, Miss_rate = 0.250, Pending_hits = 108, Reservation_fails = 0
	L1D_cache_core[7]: Access = 136, Miss = 34, Miss_rate = 0.250, Pending_hits = 102, Reservation_fails = 0
	L1D_cache_core[8]: Access = 136, Miss = 34, Miss_rate = 0.250, Pending_hits = 102, Reservation_fails = 0
	L1D_cache_core[9]: Access = 136, Miss = 34, Miss_rate = 0.250, Pending_hits = 102, Reservation_fails = 0
	L1D_cache_core[10]: Access = 128, Miss = 32, Miss_rate = 0.250, Pending_hits = 96, Reservation_fails = 0
	L1D_cache_core[11]: Access = 128, Miss = 32, Miss_rate = 0.250, Pending_hits = 96, Reservation_fails = 0
	L1D_cache_core[12]: Access = 128, Miss = 32, Miss_rate = 0.250, Pending_hits = 96, Reservation_fails = 0
	L1D_cache_core[13]: Access = 136, Miss = 34, Miss_rate = 0.250, Pending_hits = 102, Reservation_fails = 0
	L1D_cache_core[14]: Access = 128, Miss = 32, Miss_rate = 0.250, Pending_hits = 96, Reservation_fails = 0
	L1D_total_cache_accesses = 2116
	L1D_total_cache_misses = 548
	L1D_total_cache_miss_rate = 0.2590
	L1D_total_cache_pending_hits = 1536
	L1D_total_cache_reservation_fails = 0
	L1D_cache_data_port_util = 0.001
	L1D_cache_fill_port_util = 0.013
L1C_cache:
	L1C_total_cache_accesses = 4115
	L1C_total_cache_misses = 480
	L1C_total_cache_miss_rate = 0.1166
	L1C_total_cache_pending_hits = 0
	L1C_total_cache_reservation_fails = 3275
L1T_cache:
	L1T_total_cache_accesses = 0
	L1T_total_cache_misses = 0
	L1T_total_cache_pending_hits = 0
	L1T_total_cache_reservation_fails = 0

Total_core_cache_stats:
	Total_core_cache_stats_breakdown[GLOBAL_ACC_R][HIT] = 31
	Total_core_cache_stats_breakdown[GLOBAL_ACC_R][HIT_RESERVED] = 1536
	Total_core_cache_stats_breakdown[GLOBAL_ACC_R][MISS] = 523
	Total_core_cache_stats_breakdown[CONST_ACC_R][HIT] = 3635
	Total_core_cache_stats_breakdown[CONST_ACC_R][MISS] = 480
	Total_core_cache_stats_breakdown[CONST_ACC_R][RESERVATION_FAIL] = 3275
	Total_core_cache_stats_breakdown[GLOBAL_ACC_W][HIT] = 1
	Total_core_cache_stats_breakdown[GLOBAL_ACC_W][MISS] = 25
	Total_core_cache_stats_breakdown[INST_ACC_R][HIT] = 17597
	Total_core_cache_stats_breakdown[INST_ACC_R][MISS] = 962
	Total_core_cache_stats_breakdown[INST_ACC_R][RESERVATION_FAIL] = 6620
Shader 0 warp_id issue ditsribution:
warp_id:
0, 1, 2, 3, 4, 5, 6, 7, 8, 9, 10, 11, 12, 13, 14, 15, 16, 17, 18, 19, 20, 21, 22, 23, 24, 25, 26, 27, 28, 29, 30, 31, 32, 33, 34, 35, 36, 37, 38, 39, 40, 41, 42, 43, 44, 45, 46, 47, 
distro:
45, 45, 45, 45, 45, 45, 45, 45, 45, 45, 45, 45, 45, 45, 45, 45, 45, 45, 45, 45, 45, 45, 45, 45, 45, 45, 45, 45, 45, 45, 45, 45, 45, 45, 45, 45, 45, 45, 45, 45, 45, 45, 45, 45, 45, 45, 45, 45, 
gpgpu_n_tot_thrd_icount = 990816
gpgpu_n_tot_w_icount = 30963
gpgpu_n_stall_shd_mem = 3275
gpgpu_n_mem_read_local = 0
gpgpu_n_mem_write_local = 0
gpgpu_n_mem_read_global = 523
gpgpu_n_mem_write_global = 26
gpgpu_n_mem_texture = 0
gpgpu_n_mem_const = 15
gpgpu_n_load_insn  = 65578
gpgpu_n_store_insn = 26
gpgpu_n_shmem_insn = 0
gpgpu_n_tex_insn = 0
gpgpu_n_const_mem_insn = 0
gpgpu_n_param_mem_insn = 131091
gpgpu_n_shmem_bkconflict = 0
gpgpu_n_cache_bkconflict = 0
gpgpu_n_intrawarp_mshr_merge = 0
gpgpu_n_cmem_portconflict = 3275
gpgpu_stall_shd_mem[c_mem][bk_conf] = 3275
gpgpu_stall_shd_mem[c_mem][mshr_rc] = 0
gpgpu_stall_shd_mem[c_mem][icnt_rc] = 0
gpgpu_stall_shd_mem[c_mem][data_port_stall] = 0
gpgpu_stall_shd_mem[t_mem][mshr_rc] = 0
gpgpu_stall_shd_mem[t_mem][icnt_rc] = 0
gpgpu_stall_shd_mem[t_mem][data_port_stall] = 0
gpgpu_stall_shd_mem[s_mem][bk_conf] = 0
gpgpu_stall_shd_mem[gl_mem][bk_conf] = 0
gpgpu_stall_shd_mem[gl_mem][coal_stall] = 0
gpgpu_stall_shd_mem[gl_mem][data_port_stall] = 0
gpgpu_stall_shd_mem[g_mem_ld][mshr_rc] = 0
gpgpu_stall_shd_mem[g_mem_ld][icnt_rc] = 0
gpgpu_stall_shd_mem[g_mem_ld][wb_icnt_rc] = 0
gpgpu_stall_shd_mem[g_mem_ld][wb_rsrv_fail] = 0
gpgpu_stall_shd_mem[g_mem_st][mshr_rc] = 0
gpgpu_stall_shd_mem[g_mem_st][icnt_rc] = 0
gpgpu_stall_shd_mem[g_mem_st][wb_icnt_rc] = 0
gpgpu_stall_shd_mem[g_mem_st][wb_rsrv_fail] = 0
gpgpu_stall_shd_mem[l_mem_ld][mshr_rc] = 0
gpgpu_stall_shd_mem[l_mem_ld][icnt_rc] = 0
gpgpu_stall_shd_mem[l_mem_ld][wb_icnt_rc] = 0
gpgpu_stall_shd_mem[l_mem_ld][wb_rsrv_fail] = 0
gpgpu_stall_shd_mem[l_mem_st][mshr_rc] = 0
gpgpu_stall_shd_mem[l_mem_st][icnt_rc] = 0
gpgpu_stall_shd_mem[l_mem_ld][wb_icnt_rc] = 0
gpgpu_stall_shd_mem[l_mem_ld][wb_rsrv_fail] = 0
gpu_reg_bank_conflict_stalls = 0
Warp Occupancy Distribution:
Stall:7402	W0_Idle:18369	W0_Scoreboard:23088	W1:243	W2:0	W3:0	W4:0	W5:0	W6:0	W7:0	W8:0	W9:0	W10:0	W11:0	W12:0	W13:0	W14:0	W15:0	W16:0	W17:0	W18:0	W19:0	W20:0	W21:0	W22:0	W23:0	W24:0	W25:0	W26:0	W27:0	W28:0	W29:0	W30:0	W31:0	W32:30720
traffic_breakdown_coretomem[CONST_ACC_R] = 120 {8:15,}
traffic_breakdown_coretomem[GLOBAL_ACC_R] = 4184 {8:523,}
traffic_breakdown_coretomem[GLOBAL_ACC_W] = 1040 {40:26,}
traffic_breakdown_coretomem[INST_ACC_R] = 256 {8:32,}
traffic_breakdown_memtocore[CONST_ACC_R] = 1080 {72:15,}
traffic_breakdown_memtocore[GLOBAL_ACC_R] = 71128 {136:523,}
traffic_breakdown_memtocore[GLOBAL_ACC_W] = 208 {8:26,}
traffic_breakdown_memtocore[INST_ACC_R] = 4352 {136:32,}
maxmrqlatency = 15 
maxdqlatency = 0 
maxmflatency = 323 
averagemflatency = 259 
max_icnt2mem_latency = 36 
max_icnt2sh_latency = 5892 
mrq_lat_table:495 	11 	33 	9 	0 	0 	0 	0 	0 	0 	0 	0 	0 	0 	0 	0 	0 	0 	0 	0 	0 	0 	0 	0 	0 	0 	0 	0 	0 	0 	0 	0 	
dq_lat_table:0 	0 	0 	0 	0 	0 	0 	0 	0 	0 	0 	0 	0 	0 	0 	0 	0 	0 	0 	0 	0 	0 	0 	0 	0 	0 	0 	0 	0 	0 	0 	0 	
mf_lat_table:0 	0 	0 	0 	0 	0 	0 	31 	533 	0 	0 	0 	0 	0 	0 	0 	0 	0 	0 	0 	0 	0 	0 	0 	0 	0 	0 	0 	0 	0 	0 	0 	
icnt2mem_lat_table:0 	0 	0 	585 	8 	3 	0 	0 	0 	0 	0 	0 	0 	0 	0 	0 	0 	0 	0 	0 	0 	0 	0 	0 	
icnt2sh_lat_table:0 	0 	0 	347 	180 	11 	0 	0 	0 	0 	2 	9 	15 	0 	0 	0 	0 	0 	0 	0 	0 	0 	0 	0 	
mf_lat_pw_table:0 	0 	0 	0 	0 	0 	0 	6 	4 	0 	0 	0 	0 	0 	0 	0 	0 	0 	0 	0 	0 	0 	0 	0 	0 	0 	0 	0 	0 	0 	0 	0 	
maximum concurrent accesses to same row:
dram[0]:         1         0         0         0         0         0         0         0         0         0         0         0         0         0         0         0 
dram[1]:         0         0         0         0         0         0         0         0         0         0         0         0         0         0         0         0 
dram[2]:         0         0         0         0         0         0         0         0         0         0         0         0         0         0         0         0 
dram[3]:         0         0         0         0         0         0         0         0         0         0         0         0         0         0         0         0 
dram[4]:         0         0         0         0         0         0         0         0         0         0        22        22         0         0         0         0 
dram[5]:         0         0         0         0         0         0         0         0         0         0         0         0         0         0         0         0 
maximum service time to same row:
dram[0]:      1563         0      5874         0         0         0         0         0         0         0       928       904      1751      1766         0         0 
dram[1]:      1179         0         0         0         0         0         0         0         0         0       935       907      1741      1735         0      3944 
dram[2]:         0         0         0      3071         0      1604         0         0         0      4277       947       910      1750      1532         0         0 
dram[3]:         0         0         0      5071         0      4674         0         0         0         0       944       913      1749      1743         0         0 
dram[4]:         0      3871         0         0         0      5468         0         0         0         0      1256      2546      1763      1747      3141         0 
dram[5]:         0         0         0         0         0         0         0         0         0         0       900       926      1757      1768      5541         0 
average row accesses per activate:
dram[0]:  1.000000      -nan  2.000000      -nan      -nan      -nan      -nan      -nan      -nan      -nan 20.000000 22.000000 22.000000 22.000000      -nan      -nan 
dram[1]:  2.000000      -nan      -nan      -nan      -nan      -nan      -nan      -nan      -nan      -nan 20.000000 22.000000 24.000000 22.000000      -nan  3.000000 
dram[2]:      -nan      -nan      -nan  2.000000      -nan  1.000000      -nan      -nan      -nan  2.000000 20.000000 22.000000 22.000000 22.000000      -nan      -nan 
dram[3]:      -nan      -nan      -nan  2.000000      -nan  2.000000      -nan      -nan      -nan      -nan 20.000000 22.000000 22.000000 20.000000      -nan      -nan 
dram[4]:      -nan  2.000000      -nan      -nan      -nan  2.000000      -nan      -nan      -nan      -nan  8.333333 12.000000 22.000000 20.000000  2.000000      -nan 
dram[5]:      -nan      -nan      -nan      -nan      -nan      -nan      -nan      -nan      -nan      -nan 22.000000 22.000000 22.000000 20.000000  1.000000      -nan 
average row locality = 548/43 = 12.744186
number of total memory accesses made:
dram[0]:         0         0         0         0         0         0         0         0         0         0         0         0         0         0         0         0 
dram[1]:         0         0         0         0         0         0         0         0         0         0         0         0         0         0         0         0 
dram[2]:         0         0         0         0         0         0         0         0         0         0         0         0         0         0         0         0 
dram[3]:         0         0         0         0         0         0         0         0         0         0         0         0         0         0         0         0 
dram[4]:         0         0         0         0         0         0         0         0         0         0         0         0         0         0         0         0 
dram[5]:         0         0         0         0         0         0         0         0         0         0         0         0         0         0         0         0 
total accesses: 0
min_bank_accesses = 0!
min_chip_accesses = 0!
number of total read accesses:
dram[0]:         4         0         1         0         0         0         0         0         0         0        20        22        22        22         0         0 
dram[1]:         2         0         0         0         0         0         0         0         0         0        20        22        24        22         0         3 
dram[2]:         0         0         0         1         0         1         0         0         0         1        20        22        22        21         0         0 
dram[3]:         0         0         0         1         0         1         0         0         0         0        20        22        22        20         0         0 
dram[4]:         0         1         0         0         0         1         0         0         0         0        24        23        22        20         2         0 
dram[5]:         0         0         0         0         0         0         0         0         0         0        22        22        22        20         1         0 
total reads: 538
min_bank_accesses = 0!
chip skew: 93/86 = 1.08
number of total write accesses:
dram[0]:         0         0         1         0         0         0         0         0         0         0         0         0         0         0         0         0 
dram[1]:         0         0         0         0         0         0         0         0         0         0         0         0         0         0         0         0 
dram[2]:         0         0         0         1         0         0         0         0         0         1         0         0         0         1         0         0 
dram[3]:         0         0         0         1         0         1         0         0         0         0         0         0         0         0         0         0 
dram[4]:         0         1         0         0         0         1         0         0         0         0         1         1         0         0         0         0 
dram[5]:         0         0         0         0         0         0         0         0         0         0         0         0         0         0         0         0 
total reads: 10
min_bank_accesses = 0!
min_chip_accesses = 0!
average mf latency per bank:
dram[0]:       1044    none         126    none      none      none      none      none      none      none         261       261       286       259    none      none  
dram[1]:          0    none      none      none      none      none      none      none      none      none         271       260       259       260    none         260
dram[2]:     none      none      none         126    none         265    none      none      none         126       262       264       260       250    none      none  
dram[3]:     none      none      none         126    none         126    none      none      none      none         270       274       274       263    none      none  
dram[4]:     none         126    none      none      none         126    none      none      none      none         295       253       261       260       261    none  
dram[5]:     none      none      none      none      none      none      none      none      none      none         264       262       262       261       266    none  
maximum mf latency per bank:
dram[0]:        279         0       252         0         0         0         0         0         0         0       275       275       323       275         0         0
dram[1]:          0         0         0         0         0         0         0         0         0         0       276       272       278       269         0       266
dram[2]:          0         0         0       252         0       265         0         0         0       252       274       281       269       277         0         0
dram[3]:          0         0         0       252         0       252         0         0         0         0       278       275       293       290         0         0
dram[4]:          0       252         0         0         0       252         0         0         0         0       284       281       290       271       266         0
dram[5]:          0         0         0         0         0         0         0         0         0         0       281       279       280       276       266         0

Number of Memory Banks Accessed per Memory Operation per Warp (from 0):
0	0	0	0	0	0	0	0	0	0	0	0	0	0	0	0	0	0	0	0	0	0	0	0	0	0	0	0	0	0	0	0	0	0	0	0	0	0	0	0	0	0	0	0	0	0	0	0	0	0	0	0	0	0	0	0	0	0	0	0	0	0	0	0	0	0	0	0	0	0	0	0	0	0	0	0	0	0	0	0	0	0	0	0	0	0	0	0	0	0	0	0	0	0	0	0	
Average # of Memory Banks Accessed per Memory Operation per Warp=-nan

position of mrq chosen
0	0	0	0	0	0	0	0	0	0	0	0	0	0	0	0	

average position of mrq chosen = -nan
Memory Partition 0: 
Cache L2_bank_000:
MSHR contents
MSHR: tag=0x80234400, atomic=0 1 entries : 0x7f909fc23070 :  mf: uid= 34695, sid01:w00, part=0, addr=0x80234440, load , size=32, unknown  status = IN_PARTITION_DRAM (5888), 

Cache L2_bank_001:
MSHR contents

In Dram Latency Queue (total = 0): 
DRAM[0]: 16 bks, busW=8 BL=8 CL=12, tRRD=2 tCCD=6, tRCD=12 tRAS=28 tRP=12 tRC=40
n_cmd=7778 n_nop=7674 n_act=9 n_pre=3 n_req=92 n_rd=91 n_write=1 bw_util=0.02366
n_activity=858 dram_eff=0.2145
bk0: 4a 7688i bk1: 0a 7774i bk2: 1a 7757i bk3: 0a 7775i bk4: 0a 7776i bk5: 0a 7777i bk6: 0a 7779i bk7: 0a 7779i bk8: 0a 7780i bk9: 0a 7780i bk10: 20a 7744i bk11: 22a 7735i bk12: 22a 7730i bk13: 22a 7740i bk14: 0a 7777i bk15: 0a 7777i 
dram_util_bins: 0 0 0 0 0 0 0 0 0 0
dram_eff_bins: 0 0 0 0 0 0 0 0 0 0
mrqq: max=2 avg=0.00604268
Memory Partition 1: 
Cache L2_bank_002:
MSHR contents

Cache L2_bank_003:
MSHR contents

In Dram Latency Queue (total = 0): 
DRAM[1]: 16 bks, busW=8 BL=8 CL=12, tRRD=2 tCCD=6, tRCD=12 tRAS=28 tRP=12 tRC=40
n_cmd=7778 n_nop=7679 n_act=6 n_pre=0 n_req=93 n_rd=93 n_write=0 bw_util=0.02391
n_activity=763 dram_eff=0.2438
bk0: 2a 7761i bk1: 0a 7776i bk2: 0a 7777i bk3: 0a 7777i bk4: 0a 7777i bk5: 0a 7777i bk6: 0a 7777i bk7: 0a 7779i bk8: 0a 7780i bk9: 0a 7780i bk10: 20a 7741i bk11: 22a 7738i bk12: 24a 7735i bk13: 22a 7722i bk14: 0a 7776i bk15: 3a 7762i 
dram_util_bins: 0 0 0 0 0 0 0 0 0 0
dram_eff_bins: 0 0 0 0 0 0 0 0 0 0
mrqq: max=2 avg=0.00578555
Memory Partition 2: 
Cache L2_bank_004:
MSHR contents

Cache L2_bank_005:
MSHR contents

In Dram Latency Queue (total = 0): 
DRAM[2]: 16 bks, busW=8 BL=8 CL=12, tRRD=2 tCCD=6, tRCD=12 tRAS=28 tRP=12 tRC=40
n_cmd=7778 n_nop=7680 n_act=7 n_pre=0 n_req=91 n_rd=88 n_write=3 bw_util=0.0234
n_activity=765 dram_eff=0.2379
bk0: 0a 7778i bk1: 0a 7779i bk2: 0a 7779i bk3: 1a 7759i bk4: 0a 7777i bk5: 1a 7763i bk6: 0a 7778i bk7: 0a 7780i bk8: 0a 7780i bk9: 1a 7760i bk10: 20a 7739i bk11: 22a 7734i bk12: 22a 7736i bk13: 21a 7715i bk14: 0a 7775i bk15: 0a 7776i 
dram_util_bins: 0 0 0 0 0 0 0 0 0 0
dram_eff_bins: 0 0 0 0 0 0 0 0 0 0
mrqq: max=2 avg=0.00539985
Memory Partition 3: 
Cache L2_bank_006:
MSHR contents

Cache L2_bank_007:
MSHR contents

In Dram Latency Queue (total = 0): 
DRAM[3]: 16 bks, busW=8 BL=8 CL=12, tRRD=2 tCCD=6, tRCD=12 tRAS=28 tRP=12 tRC=40
n_cmd=7778 n_nop=7684 n_act=6 n_pre=0 n_req=88 n_rd=86 n_write=2 bw_util=0.02263
n_activity=677 dram_eff=0.26
bk0: 0a 7778i bk1: 0a 7780i bk2: 0a 7780i bk3: 1a 7760i bk4: 0a 7778i bk5: 1a 7758i bk6: 0a 7777i bk7: 0a 7778i bk8: 0a 7779i bk9: 0a 7779i bk10: 20a 7733i bk11: 22a 7738i bk12: 22a 7731i bk13: 20a 7713i bk14: 0a 7774i bk15: 0a 7775i 
dram_util_bins: 0 0 0 0 0 0 0 0 0 0
dram_eff_bins: 0 0 0 0 0 0 0 0 0 0
mrqq: max=2 avg=0.00707123
Memory Partition 4: 
Cache L2_bank_008:
MSHR contents

Cache L2_bank_009:
MSHR contents

In Dram Latency Queue (total = 0): 
DRAM[4]: 16 bks, busW=8 BL=8 CL=12, tRRD=2 tCCD=6, tRCD=12 tRAS=28 tRP=12 tRC=40
n_cmd=7778 n_nop=7668 n_act=10 n_pre=3 n_req=97 n_rd=93 n_write=4 bw_util=0.02494
n_activity=871 dram_eff=0.2227
bk0: 0a 7775i bk1: 1a 7757i bk2: 0a 7776i bk3: 0a 7778i bk4: 0a 7778i bk5: 1a 7760i bk6: 0a 7780i bk7: 0a 7781i bk8: 0a 7782i bk9: 0a 7783i bk10: 24a 7682i bk11: 23a 7694i bk12: 22a 7725i bk13: 20a 7714i bk14: 2a 7759i bk15: 0a 7772i 
dram_util_bins: 0 0 0 0 0 0 0 0 0 0
dram_eff_bins: 0 0 0 0 0 0 0 0 0 0
mrqq: max=2 avg=0.0163281
Memory Partition 5: 
Cache L2_bank_010:
MSHR contents

Cache L2_bank_011:
MSHR contents

In Dram Latency Queue (total = 0): 
DRAM[5]: 16 bks, busW=8 BL=8 CL=12, tRRD=2 tCCD=6, tRCD=12 tRAS=28 tRP=12 tRC=40
n_cmd=7778 n_nop=7686 n_act=5 n_pre=0 n_req=87 n_rd=87 n_write=0 bw_util=0.02237
n_activity=677 dram_eff=0.257
bk0: 0a 7775i bk1: 0a 7776i bk2: 0a 7776i bk3: 0a 7776i bk4: 0a 7777i bk5: 0a 7778i bk6: 0a 7779i bk7: 0a 7781i bk8: 0a 7781i bk9: 0a 7781i bk10: 22a 7734i bk11: 22a 7733i bk12: 22a 7733i bk13: 20a 7735i bk14: 1a 7762i bk15: 0a 7774i 
dram_util_bins: 0 0 0 0 0 0 0 0 0 0
dram_eff_bins: 0 0 0 0 0 0 0 0 0 0
mrqq: max=2 avg=0.0039856

========= L2 cache stats =========
L2_cache_bank[0]: Access = 77, Miss = 47, Miss_rate = 0.610, Pending_hits = 6, Reservation_fails = 227
L2_cache_bank[1]: Access = 44, Miss = 44, Miss_rate = 1.000, Pending_hits = 0, Reservation_fails = 0
L2_cache_bank[2]: Access = 61, Miss = 46, Miss_rate = 0.754, Pending_hits = 3, Reservation_fails = 107
L2_cache_bank[3]: Access = 47, Miss = 47, Miss_rate = 1.000, Pending_hits = 0, Reservation_fails = 0
L2_cache_bank[4]: Access = 42, Miss = 42, Miss_rate = 1.000, Pending_hits = 0, Reservation_fails = 0
L2_cache_bank[5]: Access = 46, Miss = 46, Miss_rate = 1.000, Pending_hits = 0, Reservation_fails = 0
L2_cache_bank[6]: Access = 45, Miss = 42, Miss_rate = 0.933, Pending_hits = 0, Reservation_fails = 0
L2_cache_bank[7]: Access = 46, Miss = 44, Miss_rate = 0.957, Pending_hits = 0, Reservation_fails = 0
L2_cache_bank[8]: Access = 56, Miss = 48, Miss_rate = 0.857, Pending_hits = 0, Reservation_fails = 0
L2_cache_bank[9]: Access = 45, Miss = 45, Miss_rate = 1.000, Pending_hits = 0, Reservation_fails = 0
L2_cache_bank[10]: Access = 45, Miss = 45, Miss_rate = 1.000, Pending_hits = 0, Reservation_fails = 0
L2_cache_bank[11]: Access = 42, Miss = 42, Miss_rate = 1.000, Pending_hits = 0, Reservation_fails = 0
L2_total_cache_accesses = 596
L2_total_cache_misses = 538
L2_total_cache_miss_rate = 0.9027
L2_total_cache_pending_hits = 9
L2_total_cache_reservation_fails = 334
L2_total_cache_breakdown:
	L2_cache_stats_breakdown[GLOBAL_ACC_R][MISS] = 523
	L2_cache_stats_breakdown[CONST_ACC_R][HIT] = 11
	L2_cache_stats_breakdown[CONST_ACC_R][HIT_RESERVED] = 3
	L2_cache_stats_breakdown[CONST_ACC_R][MISS] = 1
	L2_cache_stats_breakdown[CONST_ACC_R][RESERVATION_FAIL] = 114
	L2_cache_stats_breakdown[GLOBAL_ACC_W][HIT] = 16
	L2_cache_stats_breakdown[GLOBAL_ACC_W][MISS] = 10
	L2_cache_stats_breakdown[INST_ACC_R][HIT] = 22
	L2_cache_stats_breakdown[INST_ACC_R][HIT_RESERVED] = 6
	L2_cache_stats_breakdown[INST_ACC_R][MISS] = 4
	L2_cache_stats_breakdown[INST_ACC_R][RESERVATION_FAIL] = 220
L2_cache_data_port_util = 0.002
L2_cache_fill_port_util = 0.030

icnt_total_pkts_mem_to_simt=2846
icnt_total_pkts_simt_to_mem=622
LD_mem_lat_dist  0 0 0 0 0 0 0 0 0 0 0 0 0 0 0 0 0 0 0 0 0 0 0 0 0 0 0
ST_mem_lat_dist  0 0 0 0 0 0 0 0 0 0 0 0 0 0 0 0 0 0 0 0 0 0 0 0 0 0 0
----------------------------Interconnect-DETAILS--------------------------------
Class 0:
Packet latency average = 10.0948
	minimum = 6
	maximum = 50
Network latency average = 9.47903
	minimum = 6
	maximum = 39
Slowest packet = 733
Flit latency average = 8.19608
	minimum = 6
	maximum = 35
Slowest flit = 1997
Fragmentation average = 0
	minimum = 0
	maximum = 0
Injected packet rate average = 0.00749163
	minimum = 0.00593925 (at node 10)
	maximum = 0.0130663 (at node 15)
Accepted packet rate average = 0.00749163
	minimum = 0.00593925 (at node 10)
	maximum = 0.0130663 (at node 15)
Injected flit rate average = 0.0217961
	minimum = 0.00593925 (at node 10)
	maximum = 0.0582046 (at node 15)
Accepted flit rate average= 0.0217961
	minimum = 0.0071271 (at node 19)
	maximum = 0.0447989 (at node 1)
Injected packet length average = 2.9094
Accepted packet length average = 2.9094
Total in-flight flits = 0 (0 measured)
====== Overall Traffic Statistics ======
====== Traffic class 0 ======
Packet latency average = 10.0948 (1 samples)
	minimum = 6 (1 samples)
	maximum = 50 (1 samples)
Network latency average = 9.47903 (1 samples)
	minimum = 6 (1 samples)
	maximum = 39 (1 samples)
Flit latency average = 8.19608 (1 samples)
	minimum = 6 (1 samples)
	maximum = 35 (1 samples)
Fragmentation average = 0 (1 samples)
	minimum = 0 (1 samples)
	maximum = 0 (1 samples)
Injected packet rate average = 0.00749163 (1 samples)
	minimum = 0.00593925 (1 samples)
	maximum = 0.0130663 (1 samples)
Accepted packet rate average = 0.00749163 (1 samples)
	minimum = 0.00593925 (1 samples)
	maximum = 0.0130663 (1 samples)
Injected flit rate average = 0.0217961 (1 samples)
	minimum = 0.00593925 (1 samples)
	maximum = 0.0582046 (1 samples)
Accepted flit rate average = 0.0217961 (1 samples)
	minimum = 0.0071271 (1 samples)
	maximum = 0.0447989 (1 samples)
Injected packet size average = 2.9094 (1 samples)
Accepted packet size average = 2.9094 (1 samples)
Hops average = 1 (1 samples)
----------------------------END-of-Interconnect-DETAILS-------------------------


gpgpu_simulation_time = 0 days, 0 hrs, 0 min, 4 sec (4 sec)
gpgpu_simulation_rate = 229434 (inst/sec)
gpgpu_simulation_rate = 1473 (cycle/sec)
GPGPU-Sim API: Stream Manager State
GPGPU-Sim: detected inactive GPU simulation thread

GPGPU-Sim PTX: cudaLaunch for 0x0x405636 (mode=performance simulation) on stream 0
[...]
traffic_breakdown_coretomem[GLOBAL_ACC_W] = 16545304 {40:412856,72:82,136:185,}
traffic_breakdown_coretomem[INST_ACC_R] = 480 {8:60,}
traffic_breakdown_memtocore[CONST_ACC_R] = 1080 {72:15,}
traffic_breakdown_memtocore[GLOBAL_ACC_R] = 84405952 {136:620632,}
traffic_breakdown_memtocore[GLOBAL_ACC_W] = 3304984 {8:413123,}
traffic_breakdown_memtocore[INST_ACC_R] = 8160 {136:60,}
maxmrqlatency = 173 
maxdqlatency = 0 
maxmflatency = 1145 
averagemflatency = 394 
max_icnt2mem_latency = 872 
max_icnt2sh_latency = 760089 
mrq_lat_table:51608 	757 	1018 	4701 	4310 	560 	76 	10 	0 	0 	0 	0 	0 	0 	0 	0 	0 	0 	0 	0 	0 	0 	0 	0 	0 	0 	0 	0 	0 	0 	0 	0 	
dq_lat_table:0 	0 	0 	0 	0 	0 	0 	0 	0 	0 	0 	0 	0 	0 	0 	0 	0 	0 	0 	0 	0 	0 	0 	0 	0 	0 	0 	0 	0 	0 	0 	0 	
mf_lat_table:0 	0 	0 	0 	0 	0 	0 	134899 	714057 	184748 	66 	0 	0 	0 	0 	0 	0 	0 	0 	0 	0 	0 	0 	0 	0 	0 	0 	0 	0 	0 	0 	0 	
icnt2mem_lat_table:0 	0 	0 	84794 	29898 	80818 	323161 	246740 	264361 	4058 	0 	0 	0 	0 	0 	0 	0 	0 	0 	0 	0 	0 	0 	0 	
icnt2sh_lat_table:0 	0 	0 	37426 	294169 	271415 	17521 	116 	0 	0 	2 	9 	37 	925 	9194 	18682 	44244 	99522 	169738 	70770 	0 	0 	0 	0 	
mf_lat_pw_table:0 	0 	0 	0 	0 	0 	0 	106 	1421 	0 	0 	0 	0 	0 	0 	0 	0 	0 	0 	0 	0 	0 	0 	0 	0 	0 	0 	0 	0 	0 	0 	0 	
maximum concurrent accesses to same row:
dram[0]:        28        30        27        27        30        30        32        32        36        32        29        26        34        34        35        36 
dram[1]:        29        30        51        39        23        16        30        28        31        21        22        22        32        32        37        45 
dram[2]:        41        31        56        32        32        21        32        32        28        32        27        22        32        32        34        54 
dram[3]:        28        23        37        44        32        31        25        28        28        26        20        26        27        32        34        36 
dram[4]:        32        31        32        32        23        32        32        32        32        32        28        25        33        34        33        32 
dram[5]:        34        23        35        32        20        22        30        26        28        23        25        26        33        32        32        33 
maximum service time to same row:
dram[0]:     58282     46879     61430     58766     52980     53750     31853     39344     61065     39192     59666     58127     85572     68303     70379     95444 
dram[1]:     58097     61244     64494     45715     61369     35866     48003     47500     68433     78485     56537     57081     46935     85591     70327     90861 
dram[2]:     61789     40103     60269     48397     52367     44624     48078     47610     43327     42376     83697     42393     65386     86498     90246    147481 
dram[3]:     44053     36738    102715     55632     40291     47698     49205     40688     43401     36716     47362     68925     85800     83735     69123     71625 
dram[4]:     58225     71603     60601     57718     57384     71011     65097     61303    101597     51624     60147     44509     96125     81145     80358     81428 
dram[5]:     55782     57765    114159    111226     49807     46063     64327     47106     69843     32066     51806     40595     95881     75897    132276    134752 
average row accesses per activate:
dram[0]:  3.313725  3.127490  3.211712  3.058091  4.109677  3.923529  3.497797  3.668247  4.525000  4.053763  3.177340  3.068965  4.666667  4.101695  7.033333  6.176471 
dram[1]:  3.540909  4.465117  3.358744  3.490991  3.127193  3.029536  3.072797  3.082090  3.063492  3.291139  3.262222  3.089202  3.696970  4.245614  5.476191  7.164179 
dram[2]:  3.492823  3.507109  3.854054  4.049724  3.775758  4.167742  4.241379  4.491330  3.854054  3.587678  2.911017  2.722449  4.330275  4.136752  6.469697  7.166667 
dram[3]:  3.228916  3.117409  3.497835  4.059140  3.812865  3.752747  3.796020  3.558824  3.541485  3.112450  2.678030  2.708171  3.991803  4.176471  5.395349  5.826667 
dram[4]:  4.196319  4.189873  3.634518  3.500000  3.621622  3.656085  3.639344  4.125786  4.754491  3.984210  3.344086  3.201031  4.254546  4.572815  9.043478  9.000000 
dram[5]:  3.451613  3.286344  3.151394  3.033582  3.612903  3.308057  4.060773  3.790000  3.230125  3.149798  3.345178  2.841667  4.683168  4.548077  6.775862  5.644737 
average row locality = 63040/17155 = 3.674730
number of total memory accesses made:
dram[0]:         0         0         0         0         0         0         0         0         0         0         0         0         0         0         0         0 
dram[1]:         0         0         0         0         0         0         0         0         0         0         0         0         0         0         0         0 
dram[2]:         0         0         0         0         0         0         0         0         0         0         0         0         0         0         0         0 
dram[3]:         0         0         0         0         0         0         0         0         0         0         0         0         0         0         0         0 
dram[4]:         0         0         0         0         0         0         0         0         0         0         0         0         0         0         0         0 
dram[5]:         0         0         0         0         0         0         0         0         0         0         0         0         0         0         0         0 
total accesses: 0
min_bank_accesses = 0!
min_chip_accesses = 0!
number of total read accesses:
dram[0]:       487       546       517       524       494       515       616       591       554       567       525       519       418       440       421       420 
dram[1]:       528       530       511       529       532       552       614       633       589       579       560       522       451       454       457       480 
dram[2]:       522       517       511       514       476       497       561       589       552       580       551       544       449       450       426       426 
dram[3]:       554       530       567       520       483       509       580       571       597       579       565       553       447       459       464       435 
dram[4]:       493       476       514       504       506       523       534       523       592       569       508       509       439       435       416       377 
dram[5]:       534       523       557       578       511       528       574       578       584       575       534       545       441       440       392       427 
total reads: 49492
bank skew: 633/377 = 1.68
chip skew: 8521/7918 = 1.08
number of total write accesses:
dram[0]:       189       239       196       213       143       152       178       183       170       187       120       104        30        44         1         0 
dram[1]:       251       238       238       246       181       166       188       193       183       201       174       136        37        30         3         0 
dram[2]:       208       223       202       219       147       149       177       188       161       177       136       123        23        34         1         4 
dram[3]:       250       240       241       235       169       174       183       155       214       196       142       143        40        38         0         2 
dram[4]:       191       186       202       182       164       168       132       133       202       188       114       112        29        36         0         1 
dram[5]:       215       223       234       235       161       170       161       180       188       203       125       137        32        33         1         2 
total reads: 13548
min_bank_accesses = 0!
chip skew: 2465/2040 = 1.21
average mf latency per bank:
dram[0]:       2948      2577      3172      3074      3579      3427      3054      3048      3041      2998      6440      6873     14518     13655     21476     21691
dram[1]:       2643      2745      3048      3090      3408      3376      3144      3138      3029      3045      5700      6720     13525     13898     20396     19795
dram[2]:       2843      2754      3099      3060      3754      3643      3251      3128      3219      3099      6041      6691     13747     14179     21063     21550
dram[3]:       2612      2604      2820      2967      3536      3399      3174      3381      2781      2830      5888      6169     13528     13694     19853     21187
dram[4]:       3825      3053      4079      3334      4624      3398      4804      3654      3767      2951     41327      7108     18792     14514     28932     24449
dram[5]:       2735      2829      2826      2896      3335      3369      3139      3222      2855      2942      6535      6518     13578     14590     22435     21518
maximum mf latency per bank:
dram[0]:        894       917       858       943       886       931       926       986       844       934       910      1010       951       971      1144       871
dram[1]:        971       952      1116       986      1008       984       908       953       935       998       976      1046       893       983       999       980
dram[2]:       1059       939       932       932       844      1023       940       955       875       964      1024       913       884       978       936      1134
dram[3]:       1071       916       940       885       970       875       847      1047      1006       920      1062      1001       980       957      1089       938
dram[4]:       1102       890      1085       856      1066       861      1113       864      1078       884      1145       961      1066       923      1130      1124
dram[5]:        909       982       882      1035      1027      1003       871       958       918       920       875       961       905      1021      1071      1044

Number of Memory Banks Accessed per Memory Operation per Warp (from 0):
0	0	0	0	0	0	0	0	0	0	0	0	0	0	0	0	0	0	0	0	0	0	0	0	0	0	0	0	0	0	0	0	0	0	0	0	0	0	0	0	0	0	0	0	0	0	0	0	0	0	0	0	0	0	0	0	0	0	0	0	0	0	0	0	0	0	0	0	0	0	0	0	0	0	0	0	0	0	0	0	0	0	0	0	0	0	0	0	0	0	0	0	0	0	0	0	
Average # of Memory Banks Accessed per Memory Operation per Warp=-nan

position of mrq chosen
0	0	0	0	0	0	0	0	0	0	0	0	0	0	0	0	

average position of mrq chosen = -nan
Memory Partition 0: 
Cache L2_bank_000:
MSHR contents

Cache L2_bank_001:
MSHR contents

In Dram Latency Queue (total = 0): 
DRAM[0]: 16 bks, busW=8 BL=8 CL=12, tRRD=2 tCCD=6, tRCD=12 tRAS=28 tRP=12 tRC=40
n_cmd=1007232 n_nop=991395 n_act=2775 n_pre=2759 n_req=10303 n_rd=8154 n_write=2149 bw_util=0.02046
n_activity=155997 dram_eff=0.1321
bk0: 487a 999451i bk1: 546a 998312i bk2: 517a 999051i bk3: 524a 998270i bk4: 494a 1000857i bk5: 515a 1000664i bk6: 616a 998856i bk7: 591a 998785i bk8: 554a 1000028i bk9: 567a 999243i bk10: 525a 999875i bk11: 519a 999838i bk12: 418a 1003241i bk13: 440a 1002886i bk14: 421a 1004766i bk15: 420a 1004851i 
dram_util_bins: 0 0 0 0 0 0 0 0 0 0
dram_eff_bins: 0 0 0 0 0 0 0 0 0 0
mrqq: max=16 avg=0.042862
Memory Partition 1: 
Cache L2_bank_002:
MSHR contents

Cache L2_bank_003:
MSHR contents

In Dram Latency Queue (total = 0): 
DRAM[1]: 16 bks, busW=8 BL=8 CL=12, tRRD=2 tCCD=6, tRCD=12 tRAS=28 tRP=12 tRC=40
n_cmd=1007232 n_nop=989952 n_act=3155 n_pre=3139 n_req=10986 n_rd=8521 n_write=2465 bw_util=0.02181
n_activity=172547 dram_eff=0.1273
bk0: 528a 998879i bk1: 530a 1000014i bk2: 511a 998642i bk3: 529a 998542i bk4: 532a 998934i bk5: 552a 998965i bk6: 614a 997766i bk7: 633a 997528i bk8: 589a 997866i bk9: 579a 998081i bk10: 560a 998932i bk11: 522a 999444i bk12: 451a 1002341i bk13: 454a 1003142i bk14: 457a 1004185i bk15: 480a 1004857i 
dram_util_bins: 0 0 0 0 0 0 0 0 0 0
dram_eff_bins: 0 0 0 0 0 0 0 0 0 0
mrqq: max=7 avg=0.0369597
Memory Partition 2: 
Cache L2_bank_004:
MSHR contents

Cache L2_bank_005:
MSHR contents

In Dram Latency Queue (total = 0): 
DRAM[2]: 16 bks, busW=8 BL=8 CL=12, tRRD=2 tCCD=6, tRCD=12 tRAS=28 tRP=12 tRC=40
n_cmd=1007232 n_nop=991547 n_act=2682 n_pre=2666 n_req=10337 n_rd=8165 n_write=2172 bw_util=0.02053
n_activity=153473 dram_eff=0.1347
bk0: 522a 999575i bk1: 517a 999025i bk2: 511a 999744i bk3: 514a 999476i bk4: 476a 1000708i bk5: 497a 1001234i bk6: 561a 1000101i bk7: 589a 999787i bk8: 552a 1000079i bk9: 580a 999187i bk10: 551a 998938i bk11: 544a 998708i bk12: 449a 1002940i bk13: 450a 1002752i bk14: 426a 1004633i bk15: 426a 1004964i 
dram_util_bins: 0 0 0 0 0 0 0 0 0 0
dram_eff_bins: 0 0 0 0 0 0 0 0 0 0
mrqq: max=16 avg=0.0396334
Memory Partition 3: 
Cache L2_bank_006:
MSHR contents

Cache L2_bank_007:
MSHR contents

In Dram Latency Queue (total = 0): 
DRAM[3]: 16 bks, busW=8 BL=8 CL=12, tRRD=2 tCCD=6, tRCD=12 tRAS=28 tRP=12 tRC=40
n_cmd=1007232 n_nop=990269 n_act=3072 n_pre=3056 n_req=10835 n_rd=8413 n_write=2422 bw_util=0.02151
n_activity=168214 dram_eff=0.1288
bk0: 554a 998052i bk1: 530a 998070i bk2: 567a 998306i bk3: 520a 999345i bk4: 483a 1000608i bk5: 509a 1000237i bk6: 580a 999559i bk7: 571a 999875i bk8: 597a 998211i bk9: 579a 997926i bk10: 565a 998282i bk11: 553a 998430i bk12: 447a 1002503i bk13: 459a 1002744i bk14: 464a 1004142i bk15: 435a 1004802i 
dram_util_bins: 0 0 0 0 0 0 0 0 0 0
dram_eff_bins: 0 0 0 0 0 0 0 0 0 0
mrqq: max=8 avg=0.036775
Memory Partition 4: 
Cache L2_bank_008:
MSHR contents

Cache L2_bank_009:
MSHR contents

In Dram Latency Queue (total = 0): 
DRAM[4]: 16 bks, busW=8 BL=8 CL=12, tRRD=2 tCCD=6, tRCD=12 tRAS=28 tRP=12 tRC=40
n_cmd=1007232 n_nop=992354 n_act=2468 n_pre=2452 n_req=9958 n_rd=7918 n_write=2040 bw_util=0.01977
n_activity=148431 dram_eff=0.1342
bk0: 493a 1000677i bk1: 476a 1000885i bk2: 514a 999627i bk3: 504a 999961i bk4: 506a 1000440i bk5: 523a 999832i bk6: 534a 999593i bk7: 523a 1000599i bk8: 592a 999765i bk9: 569a 999415i bk10: 508a 1000028i bk11: 509a 1000147i bk12: 439a 1002786i bk13: 435a 1002896i bk14: 416a 1005122i bk15: 377a 1005426i 
dram_util_bins: 0 0 0 0 0 0 0 0 0 0
dram_eff_bins: 0 0 0 0 0 0 0 0 0 0
mrqq: max=16 avg=0.0384936
Memory Partition 5: 
Cache L2_bank_010:
MSHR contents

Cache L2_bank_011:
MSHR contents

In Dram Latency Queue (total = 0): 
DRAM[5]: 16 bks, busW=8 BL=8 CL=12, tRRD=2 tCCD=6, tRCD=12 tRAS=28 tRP=12 tRC=40
n_cmd=1007232 n_nop=990621 n_act=3003 n_pre=2987 n_req=10621 n_rd=8321 n_write=2300 bw_util=0.02109
n_activity=165945 dram_eff=0.128
bk0: 534a 999272i bk1: 523a 998838i bk2: 557a 997912i bk3: 578a 997276i bk4: 511a 1000148i bk5: 528a 999367i bk6: 574a 999702i bk7: 578a 999381i bk8: 584a 998257i bk9: 575a 997777i bk10: 534a 1000165i bk11: 545a 998774i bk12: 441a 1003310i bk13: 440a 1003262i bk14: 392a 1004869i bk15: 427a 1004908i 
dram_util_bins: 0 0 0 0 0 0 0 0 0 0
dram_eff_bins: 0 0 0 0 0 0 0 0 0 0
mrqq: max=16 avg=0.037892

========= L2 cache stats =========
L2_cache_bank[0]: Access = 82247, Miss = 4032, Miss_rate = 0.049, Pending_hits = 13, Reservation_fails = 293
L2_cache_bank[1]: Access = 82742, Miss = 4122, Miss_rate = 0.050, Pending_hits = 17, Reservation_fails = 178
L2_cache_bank[2]: Access = 82350, Miss = 4242, Miss_rate = 0.052, Pending_hits = 21, Reservation_fails = 109
L2_cache_bank[3]: Access = 83338, Miss = 4279, Miss_rate = 0.051, Pending_hits = 17, Reservation_fails = 1
L2_cache_bank[4]: Access = 81774, Miss = 4048, Miss_rate = 0.050, Pending_hits = 7, Reservation_fails = 1
L2_cache_bank[5]: Access = 82990, Miss = 4117, Miss_rate = 0.050, Pending_hits = 13, Reservation_fails = 24
L2_cache_bank[6]: Access = 82630, Miss = 4257, Miss_rate = 0.052, Pending_hits = 9, Reservation_fails = 0
L2_cache_bank[7]: Access = 83141, Miss = 4156, Miss_rate = 0.050, Pending_hits = 7, Reservation_fails = 0
L2_cache_bank[8]: Access = 122595, Miss = 4002, Miss_rate = 0.033, Pending_hits = 12, Reservation_fails = 260
L2_cache_bank[9]: Access = 83587, Miss = 3916, Miss_rate = 0.047, Pending_hits = 15, Reservation_fails = 124
L2_cache_bank[10]: Access = 82740, Miss = 4127, Miss_rate = 0.050, Pending_hits = 10, Reservation_fails = 54
L2_cache_bank[11]: Access = 83696, Miss = 4194, Miss_rate = 0.050, Pending_hits = 9, Reservation_fails = 2
L2_total_cache_accesses = 1033830
L2_total_cache_misses = 49492
L2_total_cache_miss_rate = 0.0479
L2_total_cache_pending_hits = 150
L2_total_cache_reservation_fails = 1046
L2_total_cache_breakdown:
	L2_cache_stats_breakdown[GLOBAL_ACC_R][HIT] = 578134
	L2_cache_stats_breakdown[GLOBAL_ACC_R][HIT_RESERVED] = 26
	L2_cache_stats_breakdown[GLOBAL_ACC_R][MISS] = 42472
	L2_cache_stats_breakdown[GLOBAL_ACC_R][RESERVATION_FAIL] = 703
	L2_cache_stats_breakdown[CONST_ACC_R][HIT] = 11
	L2_cache_stats_breakdown[CONST_ACC_R][HIT_RESERVED] = 3
	L2_cache_stats_breakdown[CONST_ACC_R][MISS] = 1
	L2_cache_stats_breakdown[CONST_ACC_R][RESERVATION_FAIL] = 114
	L2_cache_stats_breakdown[GLOBAL_ACC_W][HIT] = 405993
	L2_cache_stats_breakdown[GLOBAL_ACC_W][HIT_RESERVED] = 115
	L2_cache_stats_breakdown[GLOBAL_ACC_W][MISS] = 7015
	L2_cache_stats_breakdown[GLOBAL_ACC_W][RESERVATION_FAIL] = 9
	L2_cache_stats_breakdown[INST_ACC_R][HIT] = 50
	L2_cache_stats_breakdown[INST_ACC_R][HIT_RESERVED] = 6
	L2_cache_stats_breakdown[INST_ACC_R][MISS] = 4
	L2_cache_stats_breakdown[INST_ACC_R][RESERVATION_FAIL] = 220
L2_cache_data_port_util = 0.299
L2_cache_fill_port_util = 0.022

icnt_total_pkts_mem_to_simt=3516628
icnt_total_pkts_simt_to_mem=1447590
LD_mem_lat_dist  0 0 0 0 0 0 0 0 0 0 0 0 0 0 0 0 0 0 0 0 0 0 0 0 0 0 0
ST_mem_lat_dist  0 0 0 0 0 0 0 0 0 0 0 0 0 0 0 0 0 0 0 0 0 0 0 0 0 0 0
----------------------------Interconnect-DETAILS--------------------------------
Class 0:
Packet latency average = 9.88933
	minimum = 6
	maximum = 38
Network latency average = 9.17787
	minimum = 6
	maximum = 33
Slowest packet = 2066878
Flit latency average = 7.73584
	minimum = 6
	maximum = 29
Slowest flit = 4961667
Fragmentation average = 0
	minimum = 0
	maximum = 0
Injected packet rate average = 0.0265074
	minimum = 0.0219236 (at node 9)
	maximum = 0.0311174 (at node 18)
Accepted packet rate average = 0.0265074
	minimum = 0.0219236 (at node 9)
	maximum = 0.0311174 (at node 18)
Injected flit rate average = 0.0795222
	minimum = 0.0219236 (at node 9)
	maximum = 0.155587 (at node 18)
Accepted flit rate average= 0.0795222
	minimum = 0.0275813 (at node 24)
	maximum = 0.127298 (at node 2)
Injected packet length average = 3
Accepted packet length average = 3
Total in-flight flits = 0 (0 measured)
====== Overall Traffic Statistics ======
====== Traffic class 0 ======
Packet latency average = 32.3877 (9 samples)
	minimum = 6 (9 samples)
	maximum = 307.111 (9 samples)
Network latency average = 21.2192 (9 samples)
	minimum = 6 (9 samples)
	maximum = 252.333 (9 samples)
Flit latency average = 16.0403 (9 samples)
	minimum = 6 (9 samples)
	maximum = 249.889 (9 samples)
Fragmentation average = 0.030461 (9 samples)
	minimum = 0 (9 samples)
	maximum = 149.889 (9 samples)
Injected packet rate average = 0.0515871 (9 samples)
	minimum = 0.0399181 (9 samples)
	maximum = 0.0921454 (9 samples)
Accepted packet rate average = 0.0515871 (9 samples)
	minimum = 0.0399181 (9 samples)
	maximum = 0.0921454 (9 samples)
Injected flit rate average = 0.128579 (9 samples)
	minimum = 0.05246 (9 samples)
	maximum = 0.250038 (9 samples)
Accepted flit rate average = 0.128579 (9 samples)
	minimum = 0.0687803 (9 samples)
	maximum = 0.218289 (9 samples)
Injected packet size average = 2.49246 (9 samples)
Accepted packet size average = 2.49246 (9 samples)
Hops average = 1 (9 samples)
----------------------------END-of-Interconnect-DETAILS-------------------------


gpgpu_simulation_time = 0 days, 0 hrs, 8 min, 27 sec (507 sec)
gpgpu_simulation_rate = 33163 (inst/sec)
gpgpu_simulation_rate = 1505 (cycle/sec)
GPGPU-Sim: synchronize waiting for inactive GPU simulation
GPGPU-Sim API: Stream Manager State
GPGPU-Sim: detected inactive GPU simulation thread
Kernel Executed 9 times
Processing time: 505920.437500 (ms)
Result stored in result.txt
