

        *** GPGPU-Sim Simulator Version 3.2.2  [build 0] ***


GPGPU-Sim PTX: simulation mode 0 (can change with PTX_SIM_MODE_FUNC environment variable:
               1=functional simulation only, 0=detailed performance simulator)
GPGPU-Sim: Configuration options:

-network_mode                           1 # Interconnection network mode
-inter_config_file   config_fermi_islip.icnt # Interconnection network config file
-gpgpu_ptx_use_cuobjdump                    1 # Use cuobjdump to extract ptx and sass from binaries
-gpgpu_experimental_lib_support                    0 # Try to extract code from cuda libraries [Broken because of unknown cudaGetExportTable]
-gpgpu_ptx_convert_to_ptxplus                    0 # Convert SASS (native ISA) to ptxplus and run ptxplus
-gpgpu_ptx_force_max_capability                   20 # Force maximum compute capability
-gpgpu_ptx_inst_debug_to_file                    0 # Dump executed instructions' debug information to file
-gpgpu_ptx_inst_debug_file       inst_debug.txt # Executed instructions' debug output file
-gpgpu_ptx_inst_debug_thread_uid                    1 # Thread UID for executed instructions' debug output
-gpgpu_simd_model                       1 # 1 = post-dominator
-gpgpu_shader_core_pipeline              1536:32 # shader core pipeline config, i.e., {<nthread>:<warpsize>}
-gpgpu_tex_cache:l1  4:128:24,L:R:m:N:L,F:128:4,128:2 # per-shader L1 texture cache  (READ-ONLY) config  {<nsets>:<bsize>:<assoc>,<rep>:<wr>:<alloc>:<wr_alloc>,<mshr>:<N>:<merge>,<mq>:<rf>}
-gpgpu_const_cache:l1 64:64:2,L:R:f:N:L,A:2:32,4 # per-shader L1 constant memory cache  (READ-ONLY) config  {<nsets>:<bsize>:<assoc>,<rep>:<wr>:<alloc>:<wr_alloc>,<mshr>:<N>:<merge>,<mq>} 
-gpgpu_cache:il1     4:128:4,L:R:f:N:L,A:2:32,4 # shader L1 instruction cache config  {<nsets>:<bsize>:<assoc>,<rep>:<wr>:<alloc>:<wr_alloc>,<mshr>:<N>:<merge>,<mq>} 
-gpgpu_cache:dl1     32:128:4,L:L:m:N:H,A:32:8,8 # per-shader L1 data cache config  {<nsets>:<bsize>:<assoc>,<rep>:<wr>:<alloc>:<wr_alloc>,<mshr>:<N>:<merge>,<mq> | none}
-gpgpu_cache:dl1PrefL1                 none # per-shader L1 data cache config  {<nsets>:<bsize>:<assoc>,<rep>:<wr>:<alloc>:<wr_alloc>,<mshr>:<N>:<merge>,<mq> | none}
-gpgpu_cache:dl1PreShared                 none # per-shader L1 data cache config  {<nsets>:<bsize>:<assoc>,<rep>:<wr>:<alloc>:<wr_alloc>,<mshr>:<N>:<merge>,<mq> | none}
-gmem_skip_L1D                          0 # global memory access skip L1D cache (implements -Xptxas -dlcm=cg, default=no skip)
-gpgpu_perfect_mem                      0 # enable perfect memory mode (no cache miss)
-n_regfile_gating_group                    4 # group of lanes that should be read/written together)
-gpgpu_clock_gated_reg_file                    0 # enable clock gated reg file for power calculations
-gpgpu_clock_gated_lanes                    0 # enable clock gated lanes for power calculations
-gpgpu_shader_registers                32768 # Number of registers per shader core. Limits number of concurrent CTAs. (default 8192)
-gpgpu_shader_cta                       8 # Maximum number of concurrent CTAs in shader (default 8)
-gpgpu_num_cta_barriers                   16 # Maximum number of named barriers per CTA (default 16)
-gpgpu_n_clusters                      15 # number of processing clusters
-gpgpu_n_cores_per_cluster                    1 # number of simd cores per cluster
-gpgpu_n_cluster_ejection_buffer_size                    8 # number of packets in ejection buffer
-gpgpu_n_ldst_response_buffer_size                    2 # number of response packets in ld/st unit ejection buffer
-gpgpu_shmem_size                   16384 # Size of shared memory per shader core (default 16kB)
-gpgpu_shmem_size                   49152 # Size of shared memory per shader core (default 16kB)
-gpgpu_shmem_size_PrefL1                16384 # Size of shared memory per shader core (default 16kB)
-gpgpu_shmem_size_PrefShared                16384 # Size of shared memory per shader core (default 16kB)
-gpgpu_shmem_num_banks                   32 # Number of banks in the shared memory in each shader core (default 16)
-gpgpu_shmem_limited_broadcast                    0 # Limit shared memory to do one broadcast per cycle (default on)
-gpgpu_shmem_warp_parts                    1 # Number of portions a warp is divided into for shared memory bank conflict check 
-gpgpu_warpdistro_shader                   -1 # Specify which shader core to collect the warp size distribution from
-gpgpu_warp_issue_shader                    0 # Specify which shader core to collect the warp issue distribution from
-gpgpu_local_mem_map                    1 # Mapping from local memory space address to simulated GPU physical address space (default = enabled)
-gpgpu_num_reg_banks                   16 # Number of register banks (default = 8)
-gpgpu_reg_bank_use_warp_id                    0 # Use warp ID in mapping registers to banks (default = off)
-gpgpu_operand_collector_num_units_sp                    6 # number of collector units (default = 4)
-gpgpu_operand_collector_num_units_sfu                    8 # number of collector units (default = 4)
-gpgpu_operand_collector_num_units_mem                    2 # number of collector units (default = 2)
-gpgpu_operand_collector_num_units_gen                    0 # number of collector units (default = 0)
-gpgpu_operand_collector_num_in_ports_sp                    2 # number of collector unit in ports (default = 1)
-gpgpu_operand_collector_num_in_ports_sfu                    1 # number of collector unit in ports (default = 1)
-gpgpu_operand_collector_num_in_ports_mem                    1 # number of collector unit in ports (default = 1)
-gpgpu_operand_collector_num_in_ports_gen                    0 # number of collector unit in ports (default = 0)
-gpgpu_operand_collector_num_out_ports_sp                    2 # number of collector unit in ports (default = 1)
-gpgpu_operand_collector_num_out_ports_sfu                    1 # number of collector unit in ports (default = 1)
-gpgpu_operand_collector_num_out_ports_mem                    1 # number of collector unit in ports (default = 1)
-gpgpu_operand_collector_num_out_ports_gen                    0 # number of collector unit in ports (default = 0)
-gpgpu_coalesce_arch                   13 # Coalescing arch (default = 13, anything else is off for now)
-gpgpu_num_sched_per_core                    2 # Number of warp schedulers per core
-gpgpu_max_insn_issue_per_warp                    1 # Max number of instructions that can be issued per warp in one cycle by scheduler
-gpgpu_simt_core_sim_order                    1 # Select the simulation order of cores in a cluster (0=Fix, 1=Round-Robin)
-gpgpu_pipeline_widths        2,1,1,2,1,1,2 # Pipeline widths ID_OC_SP,ID_OC_SFU,ID_OC_MEM,OC_EX_SP,OC_EX_SFU,OC_EX_MEM,EX_WB
-gpgpu_num_sp_units                     2 # Number of SP units (default=1)
-gpgpu_num_sfu_units                    1 # Number of SF units (default=1)
-gpgpu_num_mem_units                    1 # Number if ldst units (default=1) WARNING: not hooked up to anything
-gpgpu_scheduler                      gto # Scheduler configuration: < lrr | gto | two_level_active > If two_level_active:<num_active_warps>:<inner_prioritization>:<outer_prioritization>For complete list of prioritization values see shader.h enum scheduler_prioritization_typeDefault: gto
-gpgpu_dram_scheduler                    1 # 0 = fifo, 1 = FR-FCFS (defaul)
-gpgpu_dram_partition_queues              8:8:8:8 # i2$:$2d:d2$:$2i
-l2_ideal                               0 # Use a ideal L2 cache that always hit
-gpgpu_cache:dl2     32:128:8,L:B:m:W:L,A:32:4,4:0,32 # unified banked L2 data cache config  {<nsets>:<bsize>:<assoc>,<rep>:<wr>:<alloc>:<wr_alloc>,<mshr>:<N>:<merge>,<mq>}
-gpgpu_cache:dl2_texture_only                    0 # L2 cache used for texture only
-gpgpu_n_mem                            6 # number of memory modules (e.g. memory controllers) in gpu
-gpgpu_n_sub_partition_per_mchannel                    2 # number of memory subpartition in each memory module
-gpgpu_n_mem_per_ctrlr                    2 # number of memory chips per memory controller
-gpgpu_memlatency_stat                   14 # track and display latency statistics 0x2 enables MC, 0x4 enables queue logs
-gpgpu_frfcfs_dram_sched_queue_size                   16 # 0 = unlimited (default); # entries per chip
-gpgpu_dram_return_queue_size                  116 # 0 = unlimited (default); # entries per chip
-gpgpu_dram_buswidth                    4 # default = 4 bytes (8 bytes per cycle at DDR)
-gpgpu_dram_burst_length                    8 # Burst length of each DRAM request (default = 4 data bus cycle)
-dram_data_command_freq_ratio                    4 # Frequency ratio between DRAM data bus and command bus (default = 2 times, i.e. DDR)
-gpgpu_dram_timing_opt nbk=16:CCD=2:RRD=6:RCD=12:RAS=28:RP=12:RC=40: CL=12:WL=4:CDLR=5:WR=12:nbkgrp=4:CCDL=3:RTPL=2 # DRAM timing parameters = {nbk:tCCD:tRRD:tRCD:tRAS:tRP:tRC:CL:WL:tCDLR:tWR:nbkgrp:tCCDL:tRTPL}
-rop_latency                          120 # ROP queue latency (default 85)
-dram_latency                         100 # DRAM latency (default 30)
-gpgpu_mem_addr_mapping dramid@8;00000000.00000000.00000000.00000000.0000RRRR.RRRRRRRR.BBBCCCCB.CCSSSSSS # mapping memory address to dram model {dramid@<start bit>;<memory address map>}
-gpgpu_mem_addr_test                    0 # run sweep test to check address mapping for aliased address
-gpgpu_mem_address_mask                    1 # 0 = old addressing mask, 1 = new addressing mask, 2 = new add. mask + flipped bank sel and chip sel bits
-gpuwattch_xml_file  gpuwattch_gtx480.xml # GPUWattch XML file
-power_simulation_enabled                    0 # Turn on power simulator (1=On, 0=Off)
-power_per_cycle_dump                    0 # Dump detailed power output each cycle
-power_trace_enabled                    0 # produce a file for the power trace (1=On, 0=Off)
-power_trace_zlevel                     6 # Compression level of the power trace output log (0=no comp, 9=highest)
-steady_power_levels_enabled                    0 # produce a file for the steady power levels (1=On, 0=Off)
-steady_state_definition                  8:4 # allowed deviation:number of samples
-gpgpu_max_cycle                        0 # terminates gpu simulation early (0 = no limit)
-gpgpu_max_insn                         0 # terminates gpu simulation early (0 = no limit)
-gpgpu_max_cta                          0 # terminates gpu simulation early (0 = no limit)
-gpgpu_runtime_stat                   500 # display runtime statistics such as dram utilization {<freq>:<flag>}
-liveness_message_freq                    1 # Minimum number of seconds between simulation liveness messages (0 = always print)
-gpgpu_flush_l1_cache                    0 # Flush L1 cache at the end of each kernel call
-gpgpu_flush_l2_cache                    0 # Flush L2 cache at the end of each kernel call
-gpgpu_deadlock_detect                    1 # Stop the simulation at deadlock (1=on (default), 0=off)
-gpgpu_ptx_instruction_classification                    0 # if enabled will classify ptx instruction types per kernel (Max 255 kernels now)
-gpgpu_ptx_sim_mode                     0 # Select between Performance (default) or Functional simulation (1)
-gpgpu_clock_domains 700.0:700.0:700.0:924.0 # Clock Domain Frequencies in MhZ {<Core Clock>:<ICNT Clock>:<L2 Clock>:<DRAM Clock>}
-gpgpu_max_concurrent_kernel                    8 # maximum kernels that can run concurrently on GPU
-gpgpu_cflog_interval                    0 # Interval between each snapshot in control flow logger
-visualizer_enabled                     0 # Turn on visualizer output (1=On, 0=Off)
-visualizer_outputfile                 NULL # Specifies the output log file for visualizer
-visualizer_zlevel                      6 # Compression level of the visualizer output log (0=no comp, 9=highest)
-trace_enabled                          0 # Turn on traces
-trace_components                    none # comma seperated list of traces to enable. Complete list found in trace_streams.tup. Default none
-trace_sampling_core                    0 # The core which is printed using CORE_DPRINTF. Default 0
-trace_sampling_memory_partition                   -1 # The memory partition which is printed using MEMPART_DPRINTF. Default -1 (i.e. all)
-enable_ptx_file_line_stats                    1 # Turn on PTX source line statistic profiling. (1 = On)
-ptx_line_stats_filename gpgpu_inst_stats.txt # Output file for PTX source line statistics.
-save_embedded_ptx                      0 # saves ptx files embedded in binary as <n>.ptx
-keep                                   0 # keep intermediate files created by GPGPU-Sim when interfacing with external programs
-gpgpu_ptx_save_converted_ptxplus                    0 # Saved converted ptxplus to a file
-ptx_opcode_latency_int         4,13,4,5,145 # Opcode latencies for integers <ADD,MAX,MUL,MAD,DIV>Default 1,1,19,25,145
-ptx_opcode_latency_fp          4,13,4,5,39 # Opcode latencies for single precision floating points <ADD,MAX,MUL,MAD,DIV>Default 1,1,1,1,30
-ptx_opcode_latency_dp         8,19,8,8,330 # Opcode latencies for double precision floating points <ADD,MAX,MUL,MAD,DIV>Default 8,8,8,8,335
-ptx_opcode_initiation_int            1,2,2,1,8 # Opcode initiation intervals for integers <ADD,MAX,MUL,MAD,DIV>Default 1,1,4,4,32
-ptx_opcode_initiation_fp            1,2,1,1,4 # Opcode initiation intervals for single precision floating points <ADD,MAX,MUL,MAD,DIV>Default 1,1,1,1,5
-ptx_opcode_initiation_dp         8,16,8,8,130 # Opcode initiation intervals for double precision floating points <ADD,MAX,MUL,MAD,DIV>Default 8,8,8,8,130
DRAM Timing Options:
nbk                                    16 # number of banks
CCD                                     2 # column to column delay
RRD                                     6 # minimal delay between activation of rows in different banks
RCD                                    12 # row to column delay
RAS                                    28 # time needed to activate row
RP                                     12 # time needed to precharge (deactivate) row
RC                                     40 # row cycle time
CDLR                                    5 # switching from write to read (changes tWTR)
WR                                     12 # last data-in to row precharge
CL                                     12 # CAS latency
WL                                      4 # Write latency
nbkgrp                                  4 # number of bank groups
CCDL                                    3 # column to column delay between accesses to different bank groups
RTPL                                    2 # read to precharge delay between accesses to different bank groups
Total number of memory sub partition = 12
addr_dec_mask[CHIP]  = 0000000000000000 	high:64 low:0
addr_dec_mask[BK]    = 000000000000e100 	high:16 low:8
addr_dec_mask[ROW]   = 000000000fff0000 	high:28 low:16
addr_dec_mask[COL]   = 0000000000001eff 	high:13 low:0
addr_dec_mask[BURST] = 000000000000003f 	high:6 low:0
sub_partition_id_mask = 0000000000000100
GPGPU-Sim uArch: clock freqs: 700000000.000000:700000000.000000:700000000.000000:924000000.000000
GPGPU-Sim uArch: clock periods: 0.00000000142857142857:0.00000000142857142857:0.00000000142857142857:0.00000000108225108225
*** Initializing Memory Statistics ***
GPGPU-Sim uArch: interconnect node map (shaderID+MemID to icntID)
GPGPU-Sim uArch: Memory nodes ID start from index: 15
GPGPU-Sim uArch:    0   1   2   3   4
GPGPU-Sim uArch:    5   6   7   8   9
GPGPU-Sim uArch:   10  11  12  13  14
GPGPU-Sim uArch:   15  16  17  18  19
GPGPU-Sim uArch:   20  21  22  23  24
GPGPU-Sim uArch:   25  26
GPGPU-Sim uArch: interconnect node reverse map (icntID to shaderID+MemID)
GPGPU-Sim uArch: Memory nodes start from ID: 15
GPGPU-Sim uArch:    0   1   2   3   4
GPGPU-Sim uArch:    5   6   7   8   9
GPGPU-Sim uArch:   10  11  12  13  14
GPGPU-Sim uArch:   15  16  17  18  19
GPGPU-Sim uArch:   20  21  22  23  24
GPGPU-Sim uArch:   25  26
3d035f1c221dff4c1b059f7701634ea5  /sciclone/data20/adwait/applications/benchmarks/CUDA/SCP/gpgpu_ptx_sim__SCP
GPGPU-Sim uArch: performance model initialization complete.
GPGPU-Sim PTX: __cudaRegisterFatBinary, fat_cubin_handle = 1, filename=scalarProd.cu
self exe links to: /sciclone/data20/adwait/applications/benchmarks/CUDA/SCP/gpgpu_ptx_sim__SCP
Running md5sum using "md5sum /sciclone/data20/adwait/applications/benchmarks/CUDA/SCP/gpgpu_ptx_sim__SCP "
Parsing file _cuobjdump_complete_output_v6TwGs
######### cuobjdump parser ########
## Adding new section ELF
Adding arch: sm_20
Adding identifier: scalarProd.cu
## Adding new section PTX
Adding ptx filename: _cuobjdump_1.ptx
Adding arch: sm_20
Adding identifier: scalarProd.cu
Done parsing!!!
GPGPU-Sim PTX: __cudaRegisterFunction _Z13scalarProdGPUPfS_S_ii : hostFun 0x0x404ea1, fat_cubin_handle = 1
GPGPU-Sim PTX: allocating shared region for "__cuda___cuda_local_var_42258_35_non_const_accumResult32" from 0x0 to 0x1000 (shared memory space)
GPGPU-Sim PTX: instruction assembly for function '_Z13scalarProdGPUPfS_S_ii'...   done.
GPGPU-Sim PTX: finding reconvergence points for '_Z13scalarProdGPUPfS_S_ii'...
GPGPU-Sim PTX: Finding dominators for '_Z13scalarProdGPUPfS_S_ii'...
GPGPU-Sim PTX: Finding immediate dominators for '_Z13scalarProdGPUPfS_S_ii'...
GPGPU-Sim PTX: Finding postdominators for '_Z13scalarProdGPUPfS_S_ii'...
GPGPU-Sim PTX: Finding immediate postdominators for '_Z13scalarProdGPUPfS_S_ii'...
GPGPU-Sim PTX: pre-decoding instructions for '_Z13scalarProdGPUPfS_S_ii'...
GPGPU-Sim PTX: reconvergence points for _Z13scalarProdGPUPfS_S_ii...
GPGPU-Sim PTX:  1 (potential) branch divergence @  PC=0x020 (_1.ptx:70) @%p1 bra $Lt_0_6146;
GPGPU-Sim PTX:    immediate post dominator      @  PC=0x308 (_1.ptx:187) exit;
GPGPU-Sim PTX:  2 (potential) branch divergence @  PC=0x068 (_1.ptx:81) @!%p2 bra $Lt_0_6914;
GPGPU-Sim PTX:    immediate post dominator      @  PC=0x1d8 (_1.ptx:137) mov.s32 %r25, 512;
GPGPU-Sim PTX:  3 (potential) branch divergence @  PC=0x0e0 (_1.ptx:99) @%p4 bra $Lt_0_12290;
GPGPU-Sim PTX:    immediate post dominator      @  PC=0x1b0 (_1.ptx:131) st.shared.f32 [%rd6+0], %f1;
GPGPU-Sim PTX:  4 (potential) branch divergence @  PC=0x198 (_1.ptx:125) @%p5 bra $Lt_0_8194;
GPGPU-Sim PTX:    immediate post dominator      @  PC=0x1a0 (_1.ptx:126) bra.uni $Lt_0_7682;
GPGPU-Sim PTX:  5 (potential) branch divergence @  PC=0x1a0 (_1.ptx:126) bra.uni $Lt_0_7682;
GPGPU-Sim PTX:    immediate post dominator      @  PC=0x1b0 (_1.ptx:131) st.shared.f32 [%rd6+0], %f1;
GPGPU-Sim PTX:  6 (potential) branch divergence @  PC=0x1d0 (_1.ptx:135) @%p6 bra $Lt_0_7426;
GPGPU-Sim PTX:    immediate post dominator      @  PC=0x1d8 (_1.ptx:137) mov.s32 %r25, 512;
GPGPU-Sim PTX:  7 (potential) branch divergence @  PC=0x1f0 (_1.ptx:143) @%p7 bra $Lt_0_9730;
GPGPU-Sim PTX:    immediate post dominator      @  PC=0x298 (_1.ptx:169) shr.s32 %r25, %r25, 1;
GPGPU-Sim PTX:  8 (potential) branch divergence @  PC=0x290 (_1.ptx:166) @%p8 bra $Lt_0_10242;
GPGPU-Sim PTX:    immediate post dominator      @  PC=0x298 (_1.ptx:169) shr.s32 %r25, %r25, 1;
GPGPU-Sim PTX:  9 (potential) branch divergence @  PC=0x2b0 (_1.ptx:172) @%p9 bra $Lt_0_9474;
GPGPU-Sim PTX:    immediate post dominator      @  PC=0x2b8 (_1.ptx:173) @!%p3 bra $Lt_0_11010;
GPGPU-Sim PTX: 10 (potential) branch divergence @  PC=0x2b8 (_1.ptx:173) @!%p3 bra $Lt_0_11010;
GPGPU-Sim PTX:    immediate post dominator      @  PC=0x2f0 (_1.ptx:182) add.u32 %r2, %r2, %r8;
GPGPU-Sim PTX: 11 (potential) branch divergence @  PC=0x300 (_1.ptx:184) @%p10 bra $Lt_0_6658;
GPGPU-Sim PTX:    immediate post dominator      @  PC=0x308 (_1.ptx:187) exit;
GPGPU-Sim PTX: ... end of reconvergence points for _Z13scalarProdGPUPfS_S_ii
GPGPU-Sim PTX: ... done pre-decoding instructions for '_Z13scalarProdGPUPfS_S_ii'.
GPGPU-Sim PTX: finished parsing EMBEDDED .ptx file _1.ptx
Adding _cuobjdump_1.ptx with cubin handle 1
GPGPU-Sim PTX: extracting embedded .ptx to temporary file "_ptx_MNmv5O"
Running: cat _ptx_MNmv5O | sed 's/.version 1.5/.version 1.4/' | sed 's/, texmode_independent//' | sed 's/\(\.extern \.const\[1\] .b8 \w\+\)\[\]/\1\[1\]/' | sed 's/const\[.\]/const\[0\]/g' > _ptx2_ZYcZ9b
GPGPU-Sim PTX: generating ptxinfo using "$CUDA_INSTALL_PATH/bin/ptxas --gpu-name=sm_20 -v _ptx2_ZYcZ9b --output-file  /dev/null 2> _ptx_MNmv5Oinfo"
GPGPU-Sim PTX: Kernel '_Z13scalarProdGPUPfS_S_ii' : regs=18, lmem=0, smem=4096, cmem=68
GPGPU-Sim PTX: removing ptxinfo using "rm -f _ptx_MNmv5O _ptx2_ZYcZ9b _ptx_MNmv5Oinfo"
GPGPU-Sim PTX: loading globals with explicit initializers... 
GPGPU-Sim PTX: finished loading globals (0 bytes total).
GPGPU-Sim PTX: loading constants with explicit initializers...  done.
Initializing data...
...allocating CPU memory.
...allocating GPU memory.
...generating input data in CPU mem.
...copying input data to GPU mem.
Data init done.
Executing GPU kernel...
GPGPU-Sim: synchronize waiting for inactive GPU simulation
GPGPU-Sim API: Stream Manager State
GPGPU-Sim: detected inactive GPU simulation thread

GPGPU-Sim PTX: cudaLaunch for 0x0x404ea1 (mode=performance simulation) on stream 0
GPGPU-Sim PTX: pushing kernel '_Z13scalarProdGPUPfS_S_ii' to stream 0, gridDim= (128,1,1) blockDim = (256,1,1) 
kernel '_Z13scalarProdGPUPfS_S_ii' transfer to GPU hardware scheduler
GPGPU-Sim uArch: Shader 1 bind to kernel 1 '_Z13scalarProdGPUPfS_S_ii'
GPGPU-Sim uArch: CTA/core = 6, limited by: threads regs
GPGPU-Sim uArch: core:  1, cta: 0 initialized @(1,0)
GPGPU-Sim uArch: Shader 2 bind to kernel 1 '_Z13scalarProdGPUPfS_S_ii'
GPGPU-Sim uArch: core:  2, cta: 0 initialized @(1,0)
GPGPU-Sim uArch: Shader 3 bind to kernel 1 '_Z13scalarProdGPUPfS_S_ii'
GPGPU-Sim uArch: core:  3, cta: 0 initialized @(1,0)
GPGPU-Sim uArch: Shader 4 bind to kernel 1 '_Z13scalarProdGPUPfS_S_ii'
GPGPU-Sim uArch: core:  4, cta: 0 initialized @(1,0)
GPGPU-Sim uArch: Shader 5 bind to kernel 1 '_Z13scalarProdGPUPfS_S_ii'
GPGPU-Sim uArch: core:  5, cta: 0 initialized @(1,0)
GPGPU-Sim uArch: Shader 6 bind to kernel 1 '_Z13scalarProdGPUPfS_S_ii'
GPGPU-Sim uArch: core:  6, cta: 0 initialized @(1,0)
GPGPU-Sim uArch: Shader 7 bind to kernel 1 '_Z13scalarProdGPUPfS_S_ii'
GPGPU-Sim uArch: core:  7, cta: 0 initialized @(1,0)
GPGPU-Sim uArch: Shader 8 bind to kernel 1 '_Z13scalarProdGPUPfS_S_ii'
GPGPU-Sim uArch: core:  8, cta: 0 initialized @(1,0)
GPGPU-Sim uArch: Shader 9 bind to kernel 1 '_Z13scalarProdGPUPfS_S_ii'
GPGPU-Sim uArch: core:  9, cta: 0 initialized @(1,0)
GPGPU-Sim uArch: Shader 10 bind to kernel 1 '_Z13scalarProdGPUPfS_S_ii'
GPGPU-Sim uArch: core: 10, cta: 0 initialized @(1,0)
GPGPU-Sim uArch: Shader 11 bind to kernel 1 '_Z13scalarProdGPUPfS_S_ii'
GPGPU-Sim uArch: core: 11, cta: 0 initialized @(1,0)
GPGPU-Sim uArch: Shader 12 bind to kernel 1 '_Z13scalarProdGPUPfS_S_ii'
GPGPU-Sim uArch: core: 12, cta: 0 initialized @(1,0)
GPGPU-Sim uArch: Shader 13 bind to kernel 1 '_Z13scalarProdGPUPfS_S_ii'
GPGPU-Sim uArch: core: 13, cta: 0 initialized @(1,0)
GPGPU-Sim uArch: Shader 14 bind to kernel 1 '_Z13scalarProdGPUPfS_S_ii'
GPGPU-Sim uArch: core: 14, cta: 0 initialized @(1,0)
GPGPU-Sim uArch: Shader 0 bind to kernel 1 '_Z13scalarProdGPUPfS_S_ii'
GPGPU-Sim uArch: core:  0, cta: 0 initialized @(1,0)
GPGPU-Sim uArch: core:  1, cta: 1 initialized @(2,0)
GPGPU-Sim uArch: core:  2, cta: 1 initialized @(2,0)
GPGPU-Sim uArch: core:  3, cta: 1 initialized @(2,0)
GPGPU-Sim uArch: core:  4, cta: 1 initialized @(2,0)
GPGPU-Sim uArch: core:  5, cta: 1 initialized @(2,0)
GPGPU-Sim uArch: core:  6, cta: 1 initialized @(2,0)
GPGPU-Sim uArch: core:  7, cta: 1 initialized @(2,0)
GPGPU-Sim uArch: core:  8, cta: 1 initialized @(2,0)
GPGPU-Sim uArch: core:  9, cta: 1 initialized @(2,0)
GPGPU-Sim uArch: core: 10, cta: 1 initialized @(2,0)
GPGPU-Sim uArch: core: 11, cta: 1 initialized @(2,0)
GPGPU-Sim uArch: core: 12, cta: 1 initialized @(2,0)
GPGPU-Sim uArch: core: 13, cta: 1 initialized @(2,0)
GPGPU-Sim uArch: core: 14, cta: 1 initialized @(2,0)
GPGPU-Sim uArch: core:  0, cta: 1 initialized @(2,0)
GPGPU-Sim uArch: core:  1, cta: 2 initialized @(3,0)
GPGPU-Sim uArch: core:  2, cta: 2 initialized @(3,0)
GPGPU-Sim uArch: core:  3, cta: 2 initialized @(3,0)
GPGPU-Sim uArch: core:  4, cta: 2 initialized @(3,0)
GPGPU-Sim uArch: core:  5, cta: 2 initialized @(3,0)
GPGPU-Sim uArch: core:  6, cta: 2 initialized @(3,0)
GPGPU-Sim uArch: core:  7, cta: 2 initialized @(3,0)
GPGPU-Sim uArch: core:  8, cta: 2 initialized @(3,0)
GPGPU-Sim uArch: core:  9, cta: 2 initialized @(3,0)
GPGPU-Sim uArch: core: 10, cta: 2 initialized @(3,0)
GPGPU-Sim uArch: core: 11, cta: 2 initialized @(3,0)
GPGPU-Sim uArch: core: 12, cta: 2 initialized @(3,0)
GPGPU-Sim uArch: core: 13, cta: 2 initialized @(3,0)
GPGPU-Sim uArch: core: 14, cta: 2 initialized @(3,0)
GPGPU-Sim uArch: core:  0, cta: 2 initialized @(3,0)
GPGPU-Sim uArch: core:  1, cta: 3 initialized @(4,0)
GPGPU-Sim uArch: core:  2, cta: 3 initialized @(4,0)
GPGPU-Sim uArch: core:  3, cta: 3 initialized @(4,0)
GPGPU-Sim uArch: core:  4, cta: 3 initialized @(4,0)
GPGPU-Sim uArch: core:  5, cta: 3 initialized @(4,0)
GPGPU-Sim uArch: core:  6, cta: 3 initialized @(4,0)
GPGPU-Sim uArch: core:  7, cta: 3 initialized @(4,0)
GPGPU-Sim uArch: core:  8, cta: 3 initialized @(4,0)
GPGPU-Sim uArch: core:  9, cta: 3 initialized @(4,0)
GPGPU-Sim uArch: core: 10, cta: 3 initialized @(4,0)
GPGPU-Sim uArch: core: 11, cta: 3 initialized @(4,0)
GPGPU-Sim uArch: core: 12, cta: 3 initialized @(4,0)
GPGPU-Sim uArch: core: 13, cta: 3 initialized @(4,0)
GPGPU-Sim uArch: core: 14, cta: 3 initialized @(4,0)
GPGPU-Sim uArch: core:  0, cta: 3 initialized @(4,0)
GPGPU-Sim uArch: core:  1, cta: 4 initialized @(5,0)
GPGPU-Sim uArch: core:  2, cta: 4 initialized @(5,0)
GPGPU-Sim uArch: core:  3, cta: 4 initialized @(5,0)
GPGPU-Sim uArch: core:  4, cta: 4 initialized @(5,0)
GPGPU-Sim uArch: core:  5, cta: 4 initialized @(5,0)
GPGPU-Sim uArch: core:  6, cta: 4 initialized @(5,0)
GPGPU-Sim uArch: core:  7, cta: 4 initialized @(5,0)
GPGPU-Sim uArch: core:  8, cta: 4 initialized @(5,0)
GPGPU-Sim uArch: core:  9, cta: 4 initialized @(5,0)
GPGPU-Sim uArch: core: 10, cta: 4 initialized @(5,0)
GPGPU-Sim uArch: core: 11, cta: 4 initialized @(5,0)
GPGPU-Sim uArch: core: 12, cta: 4 initialized @(5,0)
GPGPU-Sim uArch: core: 13, cta: 4 initialized @(5,0)
GPGPU-Sim uArch: core: 14, cta: 4 initialized @(5,0)
GPGPU-Sim uArch: core:  0, cta: 4 initialized @(5,0)
GPGPU-Sim uArch: core:  1, cta: 5 initialized @(6,0)
GPGPU-Sim uArch: core:  2, cta: 5 initialized @(6,0)
GPGPU-Sim uArch: core:  3, cta: 5 initialized @(6,0)
GPGPU-Sim uArch: core:  4, cta: 5 initialized @(6,0)
GPGPU-Sim uArch: core:  5, cta: 5 initialized @(6,0)
GPGPU-Sim uArch: core:  6, cta: 5 initialized @(6,0)
GPGPU-Sim uArch: core:  7, cta: 5 initialized @(6,0)
GPGPU-Sim uArch: core:  8, cta: 5 initialized @(6,0)
GPGPU-Sim uArch: core:  9, cta: 5 initialized @(6,0)
GPGPU-Sim uArch: core: 10, cta: 5 initialized @(6,0)
GPGPU-Sim uArch: core: 11, cta: 5 initialized @(6,0)
GPGPU-Sim uArch: core: 12, cta: 5 initialized @(6,0)
GPGPU-Sim uArch: core: 13, cta: 5 initialized @(6,0)
GPGPU-Sim uArch: core: 14, cta: 5 initialized @(6,0)
GPGPU-Sim uArch: core:  0, cta: 5 initialized @(6,0)
GPGPU-Sim uArch: cycles simulated: 500  inst.: 46080 (ipc=92.2) sim_rate=23040 (inst/sec) elapsed = 0:0:00:02 / Sun Feb 28 21:42:24 2016
GPGPU-Sim PTX: 100000 instructions simulated : ctaid=(83,0,0) tid=(63,0,0)
GPGPU-Sim PTX: 200000 instructions simulated : ctaid=(41,0,0) tid=(95,0,0)
GPGPU-Sim PTX: 300000 instructions simulated : ctaid=(86,0,0) tid=(95,0,0)
GPGPU-Sim PTX: 400000 instructions simulated : ctaid=(80,0,0) tid=(191,0,0)
GPGPU-Sim PTX: 500000 instructions simulated : ctaid=(69,0,0) tid=(95,0,0)
GPGPU-Sim PTX: 600000 instructions simulated : ctaid=(35,0,0) tid=(31,0,0)
GPGPU-Sim PTX: 700000 instructions simulated : ctaid=(68,0,0) tid=(223,0,0)
GPGPU-Sim uArch: cycles simulated: 1500  inst.: 669760 (ipc=446.5) sim_rate=223253 (inst/sec) elapsed = 0:0:00:03 / Sun Feb 28 21:42:25 2016
GPGPU-Sim PTX: 800000 instructions simulated : ctaid=(12,0,0) tid=(223,0,0)
GPGPU-Sim PTX: 900000 instructions simulated : ctaid=(12,0,0) tid=(31,0,0)
GPGPU-Sim PTX: 1000000 instructions simulated : ctaid=(77,0,0) tid=(31,0,0)
GPGPU-Sim uArch: cycles simulated: 2500  inst.: 939456 (ipc=375.8) sim_rate=234864 (inst/sec) elapsed = 0:0:00:04 / Sun Feb 28 21:42:26 2016
GPGPU-Sim PTX: 1100000 instructions simulated : ctaid=(30,0,0) tid=(127,0,0)
GPGPU-Sim PTX: 1200000 instructions simulated : ctaid=(30,0,0) tid=(31,0,0)
GPGPU-Sim uArch: cycles simulated: 4000  inst.: 1172192 (ipc=293.0) sim_rate=234438 (inst/sec) elapsed = 0:0:00:05 / Sun Feb 28 21:42:27 2016
GPGPU-Sim PTX: 1300000 instructions simulated : ctaid=(3,0,0) tid=(31,0,0)
GPGPU-Sim PTX: 1400000 instructions simulated : ctaid=(43,0,0) tid=(159,0,0)
GPGPU-Sim PTX: 1500000 instructions simulated : ctaid=(26,0,0) tid=(31,0,0)
GPGPU-Sim uArch: cycles simulated: 5500  inst.: 1496448 (ipc=272.1) sim_rate=249408 (inst/sec) elapsed = 0:0:00:06 / Sun Feb 28 21:42:28 2016
GPGPU-Sim PTX: 1600000 instructions simulated : ctaid=(36,0,0) tid=(159,0,0)
GPGPU-Sim PTX: 1700000 instructions simulated : ctaid=(73,0,0) tid=(31,0,0)
GPGPU-Sim PTX: 1800000 instructions simulated : ctaid=(33,0,0) tid=(191,0,0)
GPGPU-Sim PTX: 1900000 instructions simulated : ctaid=(13,0,0) tid=(63,0,0)
GPGPU-Sim uArch: cycles simulated: 7000  inst.: 1855488 (ipc=265.1) sim_rate=265069 (inst/sec) elapsed = 0:0:00:07 / Sun Feb 28 21:42:29 2016
GPGPU-Sim PTX: 2000000 instructions simulated : ctaid=(39,0,0) tid=(223,0,0)
GPGPU-Sim PTX: 2100000 instructions simulated : ctaid=(20,0,0) tid=(223,0,0)
GPGPU-Sim PTX: 2200000 instructions simulated : ctaid=(38,0,0) tid=(95,0,0)
GPGPU-Sim uArch: cycles simulated: 8000  inst.: 2116128 (ipc=264.5) sim_rate=264516 (inst/sec) elapsed = 0:0:00:08 / Sun Feb 28 21:42:30 2016
GPGPU-Sim PTX: 2300000 instructions simulated : ctaid=(8,0,0) tid=(63,0,0)
GPGPU-Sim PTX: 2400000 instructions simulated : ctaid=(34,0,0) tid=(63,0,0)
GPGPU-Sim PTX: 2500000 instructions simulated : ctaid=(1,0,0) tid=(63,0,0)
GPGPU-Sim PTX: 2600000 instructions simulated : ctaid=(18,0,0) tid=(255,0,0)
GPGPU-Sim uArch: cycles simulated: 9500  inst.: 2469888 (ipc=260.0) sim_rate=274432 (inst/sec) elapsed = 0:0:00:09 / Sun Feb 28 21:42:31 2016
GPGPU-Sim PTX: 2700000 instructions simulated : ctaid=(25,0,0) tid=(95,0,0)
GPGPU-Sim PTX: 2800000 instructions simulated : ctaid=(11,0,0) tid=(31,0,0)
GPGPU-Sim PTX: 2900000 instructions simulated : ctaid=(57,0,0) tid=(223,0,0)
GPGPU-Sim PTX: 3000000 instructions simulated : ctaid=(41,0,0) tid=(159,0,0)
GPGPU-Sim uArch: cycles simulated: 11000  inst.: 2869632 (ipc=260.9) sim_rate=286963 (inst/sec) elapsed = 0:0:00:10 / Sun Feb 28 21:42:32 2016
GPGPU-Sim PTX: 3100000 instructions simulated : ctaid=(1,0,0) tid=(127,0,0)
GPGPU-Sim PTX: 3200000 instructions simulated : ctaid=(39,0,0) tid=(223,0,0)
GPGPU-Sim PTX: 3300000 instructions simulated : ctaid=(38,0,0) tid=(223,0,0)
GPGPU-Sim uArch: cycles simulated: 12500  inst.: 3215488 (ipc=257.2) sim_rate=292317 (inst/sec) elapsed = 0:0:00:11 / Sun Feb 28 21:42:33 2016
GPGPU-Sim PTX: 3400000 instructions simulated : ctaid=(52,0,0) tid=(127,0,0)
GPGPU-Sim PTX: 3500000 instructions simulated : ctaid=(63,0,0) tid=(159,0,0)
GPGPU-Sim PTX: 3600000 instructions simulated : ctaid=(18,0,0) tid=(127,0,0)
GPGPU-Sim uArch: cycles simulated: 13500  inst.: 3450304 (ipc=255.6) sim_rate=287525 (inst/sec) elapsed = 0:0:00:12 / Sun Feb 28 21:42:34 2016
GPGPU-Sim PTX: 3700000 instructions simulated : ctaid=(69,0,0) tid=(159,0,0)
GPGPU-Sim PTX: 3800000 instructions simulated : ctaid=(17,0,0) tid=(191,0,0)
GPGPU-Sim PTX: 3900000 instructions simulated : ctaid=(79,0,0) tid=(159,0,0)
GPGPU-Sim PTX: 4000000 instructions simulated : ctaid=(52,0,0) tid=(255,0,0)
GPGPU-Sim uArch: cycles simulated: 15000  inst.: 3884416 (ipc=259.0) sim_rate=298801 (inst/sec) elapsed = 0:0:00:13 / Sun Feb 28 21:42:35 2016
GPGPU-Sim PTX: 4100000 instructions simulated : ctaid=(66,0,0) tid=(31,0,0)
GPGPU-Sim PTX: 4200000 instructions simulated : ctaid=(6,0,0) tid=(31,0,0)
GPGPU-Sim PTX: 4300000 instructions simulated : ctaid=(11,0,0) tid=(223,0,0)
GPGPU-Sim PTX: 4400000 instructions simulated : ctaid=(45,0,0) tid=(223,0,0)
GPGPU-Sim PTX: 4500000 instructions simulated : ctaid=(3,0,0) tid=(15,0,0)
GPGPU-Sim uArch: cycles simulated: 16000  inst.: 4336552 (ipc=271.0) sim_rate=309753 (inst/sec) elapsed = 0:0:00:14 / Sun Feb 28 21:42:36 2016
GPGPU-Sim PTX: 4600000 instructions simulated : ctaid=(82,0,0) tid=(95,0,0)
GPGPU-Sim PTX: 4700000 instructions simulated : ctaid=(43,0,0) tid=(99,0,0)
GPGPU-Sim PTX: 4800000 instructions simulated : ctaid=(21,0,0) tid=(135,0,0)
GPGPU-Sim PTX: 4900000 instructions simulated : ctaid=(10,0,0) tid=(25,0,0)
GPGPU-Sim PTX: 5000000 instructions simulated : ctaid=(80,0,0) tid=(147,0,0)
GPGPU-Sim uArch: cycles simulated: 17000  inst.: 4832334 (ipc=284.3) sim_rate=322155 (inst/sec) elapsed = 0:0:00:15 / Sun Feb 28 21:42:37 2016
GPGPU-Sim PTX: 5100000 instructions simulated : ctaid=(10,0,0) tid=(30,0,0)
GPGPU-Sim PTX: 5200000 instructions simulated : ctaid=(10,0,0) tid=(97,0,0)
GPGPU-Sim PTX: 5300000 instructions simulated : ctaid=(82,0,0) tid=(91,0,0)
GPGPU-Sim PTX: 5400000 instructions simulated : ctaid=(21,0,0) tid=(90,0,0)
GPGPU-Sim PTX: 5500000 instructions simulated : ctaid=(8,0,0) tid=(201,0,0)
GPGPU-Sim PTX: 5600000 instructions simulated : ctaid=(11,0,0) tid=(211,0,0)
GPGPU-Sim uArch: cycles simulated: 18000  inst.: 5369292 (ipc=298.3) sim_rate=335580 (inst/sec) elapsed = 0:0:00:16 / Sun Feb 28 21:42:38 2016
GPGPU-Sim PTX: 5700000 instructions simulated : ctaid=(73,0,0) tid=(245,0,0)
GPGPU-Sim PTX: 5800000 instructions simulated : ctaid=(70,0,0) tid=(222,0,0)
GPGPU-Sim PTX: 5900000 instructions simulated : ctaid=(54,0,0) tid=(45,0,0)
GPGPU-Sim PTX: 6000000 instructions simulated : ctaid=(21,0,0) tid=(45,0,0)
GPGPU-Sim uArch: cycles simulated: 19000  inst.: 5784807 (ipc=304.5) sim_rate=340282 (inst/sec) elapsed = 0:0:00:17 / Sun Feb 28 21:42:39 2016
GPGPU-Sim PTX: 6100000 instructions simulated : ctaid=(38,0,0) tid=(97,0,0)
GPGPU-Sim PTX: 6200000 instructions simulated : ctaid=(20,0,0) tid=(60,0,0)
GPGPU-Sim PTX: 6300000 instructions simulated : ctaid=(33,0,0) tid=(43,0,0)
GPGPU-Sim PTX: 6400000 instructions simulated : ctaid=(9,0,0) tid=(77,0,0)
GPGPU-Sim PTX: 6500000 instructions simulated : ctaid=(46,0,0) tid=(59,0,0)
GPGPU-Sim uArch: cycles simulated: 20000  inst.: 6210049 (ipc=310.5) sim_rate=345002 (inst/sec) elapsed = 0:0:00:18 / Sun Feb 28 21:42:40 2016
GPGPU-Sim PTX: 6600000 instructions simulated : ctaid=(33,0,0) tid=(55,0,0)
GPGPU-Sim PTX: 6700000 instructions simulated : ctaid=(11,0,0) tid=(202,0,0)
GPGPU-Sim PTX: 6800000 instructions simulated : ctaid=(34,0,0) tid=(200,0,0)
GPGPU-Sim PTX: 6900000 instructions simulated : ctaid=(3,0,0) tid=(221,0,0)
GPGPU-Sim PTX: 7000000 instructions simulated : ctaid=(43,0,0) tid=(123,0,0)
GPGPU-Sim uArch: cycles simulated: 21500  inst.: 6681922 (ipc=310.8) sim_rate=351680 (inst/sec) elapsed = 0:0:00:19 / Sun Feb 28 21:42:41 2016
GPGPU-Sim PTX: 7100000 instructions simulated : ctaid=(30,0,0) tid=(23,0,0)
GPGPU-Sim PTX: 7200000 instructions simulated : ctaid=(14,0,0) tid=(231,0,0)
GPGPU-Sim PTX: 7300000 instructions simulated : ctaid=(42,0,0) tid=(143,0,0)
GPGPU-Sim PTX: 7400000 instructions simulated : ctaid=(14,0,0) tid=(177,0,0)
GPGPU-Sim uArch: cycles simulated: 22500  inst.: 7143241 (ipc=317.5) sim_rate=357162 (inst/sec) elapsed = 0:0:00:20 / Sun Feb 28 21:42:42 2016
GPGPU-Sim PTX: 7500000 instructions simulated : ctaid=(13,0,0) tid=(169,0,0)
GPGPU-Sim PTX: 7600000 instructions simulated : ctaid=(34,0,0) tid=(233,0,0)
GPGPU-Sim PTX: 7700000 instructions simulated : ctaid=(44,0,0) tid=(147,0,0)
GPGPU-Sim PTX: 7800000 instructions simulated : ctaid=(42,0,0) tid=(53,0,0)
GPGPU-Sim PTX: 7900000 instructions simulated : ctaid=(22,0,0) tid=(130,0,0)
GPGPU-Sim uArch: cycles simulated: 23500  inst.: 7543925 (ipc=321.0) sim_rate=359234 (inst/sec) elapsed = 0:0:00:21 / Sun Feb 28 21:42:43 2016
GPGPU-Sim PTX: 8000000 instructions simulated : ctaid=(37,0,0) tid=(6,0,0)
GPGPU-Sim PTX: 8100000 instructions simulated : ctaid=(32,0,0) tid=(175,0,0)
GPGPU-Sim PTX: 8200000 instructions simulated : ctaid=(37,0,0) tid=(220,0,0)
GPGPU-Sim uArch: cycles simulated: 24500  inst.: 7900975 (ipc=322.5) sim_rate=359135 (inst/sec) elapsed = 0:0:00:22 / Sun Feb 28 21:42:44 2016
GPGPU-Sim PTX: 8300000 instructions simulated : ctaid=(55,0,0) tid=(55,0,0)
GPGPU-Sim PTX: 8400000 instructions simulated : ctaid=(5,0,0) tid=(23,0,0)
GPGPU-Sim PTX: 8500000 instructions simulated : ctaid=(22,0,0) tid=(65,0,0)
GPGPU-Sim PTX: 8600000 instructions simulated : ctaid=(17,0,0) tid=(6,0,0)
GPGPU-Sim PTX: 8700000 instructions simulated : ctaid=(21,0,0) tid=(219,0,0)
GPGPU-Sim uArch: cycles simulated: 26000  inst.: 8323936 (ipc=320.2) sim_rate=361910 (inst/sec) elapsed = 0:0:00:23 / Sun Feb 28 21:42:45 2016
GPGPU-Sim PTX: 8800000 instructions simulated : ctaid=(36,0,0) tid=(186,0,0)
GPGPU-Sim PTX: 8900000 instructions simulated : ctaid=(9,0,0) tid=(245,0,0)
GPGPU-Sim PTX: 9000000 instructions simulated : ctaid=(6,0,0) tid=(21,0,0)
GPGPU-Sim uArch: cycles simulated: 27000  inst.: 8619735 (ipc=319.2) sim_rate=359155 (inst/sec) elapsed = 0:0:00:24 / Sun Feb 28 21:42:46 2016
GPGPU-Sim PTX: 9100000 instructions simulated : ctaid=(42,0,0) tid=(117,0,0)
GPGPU-Sim PTX: 9200000 instructions simulated : ctaid=(39,0,0) tid=(53,0,0)
GPGPU-Sim PTX: 9300000 instructions simulated : ctaid=(2,0,0) tid=(213,0,0)
GPGPU-Sim PTX: 9400000 instructions simulated : ctaid=(72,0,0) tid=(101,0,0)
GPGPU-Sim PTX: 9500000 instructions simulated : ctaid=(20,0,0) tid=(109,0,0)
GPGPU-Sim PTX: 9600000 instructions simulated : ctaid=(54,0,0) tid=(181,0,0)
GPGPU-Sim uArch: cycles simulated: 28500  inst.: 9213409 (ipc=323.3) sim_rate=368536 (inst/sec) elapsed = 0:0:00:25 / Sun Feb 28 21:42:47 2016
GPGPU-Sim PTX: 9700000 instructions simulated : ctaid=(58,0,0) tid=(206,0,0)
GPGPU-Sim PTX: 9800000 instructions simulated : ctaid=(4,0,0) tid=(123,0,0)
GPGPU-Sim uArch: Shader 10 finished CTA #0 (29055,0), 5 CTAs running
GPGPU-Sim uArch: core: 10, cta: 0 initialized @(29056,0)
GPGPU-Sim PTX: 9900000 instructions simulated : ctaid=(75,0,0) tid=(190,0,0)
GPGPU-Sim PTX: 10000000 instructions simulated : ctaid=(52,0,0) tid=(79,0,0)
GPGPU-Sim PTX: 10100000 instructions simulated : ctaid=(53,0,0) tid=(61,0,0)
GPGPU-Sim uArch: cycles simulated: 29500  inst.: 9637429 (ipc=326.7) sim_rate=370670 (inst/sec) elapsed = 0:0:00:26 / Sun Feb 28 21:42:48 2016
GPGPU-Sim uArch: Shader 7 finished CTA #0 (29534,0), 5 CTAs running
GPGPU-Sim uArch: core:  7, cta: 0 initialized @(29535,0)
GPGPU-Sim PTX: 10200000 instructions simulated : ctaid=(57,0,0) tid=(221,0,0)
GPGPU-Sim uArch: Shader 8 finished CTA #0 (29709,0), 5 CTAs running
GPGPU-Sim uArch: core:  8, cta: 0 initialized @(29710,0)
GPGPU-Sim PTX: 10300000 instructions simulated : ctaid=(21,0,0) tid=(44,0,0)
GPGPU-Sim PTX: 10400000 instructions simulated : ctaid=(30,0,0) tid=(181,0,0)
GPGPU-Sim uArch: Shader 1 finished CTA #0 (29988,0), 5 CTAs running
GPGPU-Sim uArch: core:  1, cta: 0 initialized @(29989,0)
GPGPU-Sim PTX: 10500000 instructions simulated : ctaid=(24,0,0) tid=(237,0,0)
GPGPU-Sim uArch: Shader 3 finished CTA #0 (30237,0), 5 CTAs running
GPGPU-Sim uArch: core:  3, cta: 0 initialized @(30238,0)
GPGPU-Sim PTX: 10600000 instructions simulated : ctaid=(20,0,0) tid=(187,0,0)
GPGPU-Sim PTX: 10700000 instructions simulated : ctaid=(51,0,0) tid=(61,0,0)
GPGPU-Sim uArch: Shader 5 finished CTA #0 (30476,0), 5 CTAs running
GPGPU-Sim uArch: core:  5, cta: 0 initialized @(30477,0)
GPGPU-Sim uArch: cycles simulated: 30500  inst.: 10249798 (ipc=336.1) sim_rate=379622 (inst/sec) elapsed = 0:0:00:27 / Sun Feb 28 21:42:49 2016
GPGPU-Sim PTX: 10800000 instructions simulated : ctaid=(34,0,0) tid=(76,0,0)
GPGPU-Sim uArch: Shader 13 finished CTA #0 (30741,0), 5 CTAs running
GPGPU-Sim uArch: core: 13, cta: 0 initialized @(30742,0)
GPGPU-Sim PTX: 10900000 instructions simulated : ctaid=(46,0,0) tid=(186,0,0)
GPGPU-Sim uArch: Shader 0 finished CTA #0 (30831,0), 5 CTAs running
GPGPU-Sim uArch: core:  0, cta: 0 initialized @(30832,0)
GPGPU-Sim PTX: 11000000 instructions simulated : ctaid=(37,0,0) tid=(230,0,0)
GPGPU-Sim PTX: 11100000 instructions simulated : ctaid=(51,0,0) tid=(84,0,0)
GPGPU-Sim uArch: Shader 12 finished CTA #0 (31139,0), 5 CTAs running
GPGPU-Sim uArch: core: 12, cta: 0 initialized @(31140,0)
GPGPU-Sim PTX: 11200000 instructions simulated : ctaid=(13,0,0) tid=(238,0,0)
GPGPU-Sim uArch: Shader 9 finished CTA #0 (31289,0), 5 CTAs running
GPGPU-Sim uArch: core:  9, cta: 0 initialized @(31290,0)
GPGPU-Sim uArch: Shader 7 finished CTA #1 (31299,0), 5 CTAs running
GPGPU-Sim uArch: core:  7, cta: 1 initialized @(31300,0)
GPGPU-Sim PTX: 11300000 instructions simulated : ctaid=(48,0,0) tid=(169,0,0)
GPGPU-Sim uArch: Shader 6 finished CTA #0 (31371,0), 5 CTAs running
GPGPU-Sim uArch: core:  6, cta: 0 initialized @(31372,0)
GPGPU-Sim PTX: 11400000 instructions simulated : ctaid=(69,0,0) tid=(148,0,0)
GPGPU-Sim uArch: cycles simulated: 31500  inst.: 10879333 (ipc=345.4) sim_rate=388547 (inst/sec) elapsed = 0:0:00:28 / Sun Feb 28 21:42:50 2016
GPGPU-Sim uArch: Shader 4 finished CTA #0 (31503,0), 5 CTAs running
GPGPU-Sim uArch: core:  4, cta: 0 initialized @(31504,0)
GPGPU-Sim PTX: 11500000 instructions simulated : ctaid=(75,0,0) tid=(191,0,0)
GPGPU-Sim PTX: 11600000 instructions simulated : ctaid=(90,0,0) tid=(26,0,0)
GPGPU-Sim uArch: Shader 14 finished CTA #0 (31803,0), 5 CTAs running
GPGPU-Sim uArch: core: 14, cta: 0 initialized @(31804,0)
GPGPU-Sim PTX: 11700000 instructions simulated : ctaid=(22,0,0) tid=(2,0,0)
GPGPU-Sim uArch: cycles simulated: 32000  inst.: 11204593 (ipc=350.1) sim_rate=386365 (inst/sec) elapsed = 0:0:00:29 / Sun Feb 28 21:42:51 2016
GPGPU-Sim PTX: 11800000 instructions simulated : ctaid=(10,0,0) tid=(207,0,0)
GPGPU-Sim uArch: Shader 1 finished CTA #1 (32122,0), 5 CTAs running
GPGPU-Sim uArch: core:  1, cta: 1 initialized @(32123,0)
GPGPU-Sim PTX: 11900000 instructions simulated : ctaid=(48,0,0) tid=(92,0,0)
GPGPU-Sim PTX: 12000000 instructions simulated : ctaid=(67,0,0) tid=(136,0,0)
GPGPU-Sim PTX: 12100000 instructions simulated : ctaid=(46,0,0) tid=(6,0,0)
GPGPU-Sim uArch: Shader 10 finished CTA #1 (32634,0), 5 CTAs running
GPGPU-Sim uArch: core: 10, cta: 1 initialized @(32635,0)
GPGPU-Sim uArch: Shader 11 finished CTA #0 (32642,0), 5 CTAs running
GPGPU-Sim uArch: core: 11, cta: 0 initialized @(32643,0)
GPGPU-Sim uArch: Shader 2 finished CTA #0 (32679,0), 5 CTAs running
GPGPU-Sim uArch: core:  2, cta: 0 initialized @(32680,0)
GPGPU-Sim PTX: 12200000 instructions simulated : ctaid=(106,0,0) tid=(73,0,0)
GPGPU-Sim uArch: Shader 6 finished CTA #1 (32866,0), 5 CTAs running
GPGPU-Sim uArch: core:  6, cta: 1 initialized @(32867,0)
GPGPU-Sim uArch: Shader 5 finished CTA #1 (32970,0), 5 CTAs running
GPGPU-Sim uArch: core:  5, cta: 1 initialized @(32971,0)
GPGPU-Sim uArch: cycles simulated: 33000  inst.: 11712222 (ipc=354.9) sim_rate=390407 (inst/sec) elapsed = 0:0:00:30 / Sun Feb 28 21:42:52 2016
GPGPU-Sim uArch: Shader 4 finished CTA #1 (33006,0), 5 CTAs running
GPGPU-Sim uArch: core:  4, cta: 1 initialized @(33007,0)
GPGPU-Sim PTX: 12300000 instructions simulated : ctaid=(100,0,0) tid=(70,0,0)
GPGPU-Sim uArch: Shader 13 finished CTA #1 (33222,0), 5 CTAs running
GPGPU-Sim uArch: core: 13, cta: 1 initialized @(33223,0)
GPGPU-Sim PTX: 12400000 instructions simulated : ctaid=(109,0,0) tid=(56,0,0)
GPGPU-Sim uArch: Shader 8 finished CTA #1 (33444,0), 5 CTAs running
GPGPU-Sim uArch: core:  8, cta: 1 initialized @(33445,0)
GPGPU-Sim PTX: 12500000 instructions simulated : ctaid=(111,0,0) tid=(84,0,0)
GPGPU-Sim uArch: Shader 0 finished CTA #1 (33493,0), 5 CTAs running
GPGPU-Sim uArch: core:  0, cta: 1 initialized @(33494,0)
GPGPU-Sim uArch: Shader 2 finished CTA #1 (33588,0), 5 CTAs running
GPGPU-Sim uArch: core:  2, cta: 1 initialized @(33589,0)
GPGPU-Sim uArch: Shader 9 finished CTA #1 (33590,0), 5 CTAs running
GPGPU-Sim uArch: core:  9, cta: 1 initialized @(33591,0)
GPGPU-Sim PTX: 12600000 instructions simulated : ctaid=(25,0,0) tid=(244,0,0)
GPGPU-Sim uArch: Shader 3 finished CTA #1 (33814,0), 5 CTAs running
GPGPU-Sim uArch: core:  3, cta: 1 initialized @(33815,0)
GPGPU-Sim PTX: 12700000 instructions simulated : ctaid=(36,0,0) tid=(53,0,0)
GPGPU-Sim uArch: cycles simulated: 34000  inst.: 12125379 (ipc=356.6) sim_rate=391141 (inst/sec) elapsed = 0:0:00:31 / Sun Feb 28 21:42:53 2016
GPGPU-Sim PTX: 12800000 instructions simulated : ctaid=(48,0,0) tid=(163,0,0)
GPGPU-Sim PTX: 12900000 instructions simulated : ctaid=(70,0,0) tid=(80,0,0)
GPGPU-Sim uArch: Shader 14 finished CTA #1 (34405,0), 5 CTAs running
GPGPU-Sim uArch: core: 14, cta: 1 initialized @(34406,0)
GPGPU-Sim PTX: 13000000 instructions simulated : ctaid=(70,0,0) tid=(3,0,0)
GPGPU-Sim uArch: Shader 12 finished CTA #1 (34741,0), 5 CTAs running
GPGPU-Sim uArch: core: 12, cta: 1 initialized @(34742,0)
GPGPU-Sim PTX: 13100000 instructions simulated : ctaid=(117,0,0) tid=(163,0,0)
GPGPU-Sim PTX: 13200000 instructions simulated : ctaid=(93,0,0) tid=(250,0,0)
GPGPU-Sim uArch: cycles simulated: 35000  inst.: 12614083 (ipc=360.4) sim_rate=394190 (inst/sec) elapsed = 0:0:00:32 / Sun Feb 28 21:42:54 2016
GPGPU-Sim PTX: 13300000 instructions simulated : ctaid=(64,0,0) tid=(178,0,0)
GPGPU-Sim PTX: 13400000 instructions simulated : ctaid=(91,0,0) tid=(215,0,0)
GPGPU-Sim PTX: 13500000 instructions simulated : ctaid=(111,0,0) tid=(103,0,0)
GPGPU-Sim PTX: 13600000 instructions simulated : ctaid=(96,0,0) tid=(55,0,0)
GPGPU-Sim PTX: 13700000 instructions simulated : ctaid=(66,0,0) tid=(252,0,0)
GPGPU-Sim uArch: cycles simulated: 36000  inst.: 13137292 (ipc=364.9) sim_rate=398099 (inst/sec) elapsed = 0:0:00:33 / Sun Feb 28 21:42:55 2016
GPGPU-Sim PTX: 13800000 instructions simulated : ctaid=(71,0,0) tid=(33,0,0)
GPGPU-Sim PTX: 13900000 instructions simulated : ctaid=(56,0,0) tid=(33,0,0)
GPGPU-Sim PTX: 14000000 instructions simulated : ctaid=(71,0,0) tid=(149,0,0)
GPGPU-Sim uArch: Shader 11 finished CTA #1 (36474,0), 5 CTAs running
GPGPU-Sim uArch: core: 11, cta: 1 initialized @(36475,0)
GPGPU-Sim PTX: 14100000 instructions simulated : ctaid=(67,0,0) tid=(67,0,0)
GPGPU-Sim uArch: Shader 8 finished CTA #2 (36658,0), 5 CTAs running
GPGPU-Sim uArch: core:  8, cta: 2 initialized @(36659,0)
GPGPU-Sim uArch: Shader 3 finished CTA #2 (36824,0), 5 CTAs running
GPGPU-Sim uArch: core:  3, cta: 2 initialized @(36825,0)
GPGPU-Sim PTX: 14200000 instructions simulated : ctaid=(31,0,0) tid=(153,0,0)
GPGPU-Sim uArch: cycles simulated: 37000  inst.: 13594097 (ipc=367.4) sim_rate=399826 (inst/sec) elapsed = 0:0:00:34 / Sun Feb 28 21:42:56 2016
GPGPU-Sim PTX: 14300000 instructions simulated : ctaid=(98,0,0) tid=(40,0,0)
GPGPU-Sim uArch: Shader 1 finished CTA #2 (37156,0), 5 CTAs running
GPGPU-Sim uArch: core:  1, cta: 2 initialized @(37157,0)
GPGPU-Sim uArch: Shader 9 finished CTA #2 (37176,0), 5 CTAs running
GPGPU-Sim uArch: core:  9, cta: 2 initialized @(37177,0)
GPGPU-Sim PTX: 14400000 instructions simulated : ctaid=(109,0,0) tid=(116,0,0)
GPGPU-Sim PTX: 14500000 instructions simulated : ctaid=(98,0,0) tid=(134,0,0)
GPGPU-Sim uArch: cycles simulated: 37500  inst.: 13835741 (ipc=369.0) sim_rate=395306 (inst/sec) elapsed = 0:0:00:35 / Sun Feb 28 21:42:57 2016
GPGPU-Sim uArch: Shader 10 finished CTA #2 (37516,0), 5 CTAs running
GPGPU-Sim uArch: core: 10, cta: 2 initialized @(37517,0)
GPGPU-Sim uArch: Shader 5 finished CTA #2 (37595,0), 5 CTAs running
GPGPU-Sim uArch: core:  5, cta: 2 initialized @(37596,0)
GPGPU-Sim PTX: 14600000 instructions simulated : ctaid=(98,0,0) tid=(92,0,0)
GPGPU-Sim PTX: 14700000 instructions simulated : ctaid=(50,0,0) tid=(49,0,0)
GPGPU-Sim PTX: 14800000 instructions simulated : ctaid=(33,0,0) tid=(135,0,0)
GPGPU-Sim uArch: Shader 13 finished CTA #2 (38067,0), 5 CTAs running
GPGPU-Sim uArch: core: 13, cta: 2 initialized @(38068,0)
GPGPU-Sim PTX: 14900000 instructions simulated : ctaid=(59,0,0) tid=(220,0,0)
GPGPU-Sim uArch: Shader 12 finished CTA #2 (38242,0), 5 CTAs running
GPGPU-Sim uArch: core: 12, cta: 2 initialized @(38243,0)
GPGPU-Sim PTX: 15000000 instructions simulated : ctaid=(79,0,0) tid=(217,0,0)
GPGPU-Sim uArch: cycles simulated: 38500  inst.: 14311098 (ipc=371.7) sim_rate=397530 (inst/sec) elapsed = 0:0:00:36 / Sun Feb 28 21:42:58 2016
GPGPU-Sim uArch: Shader 7 finished CTA #2 (38607,0), 5 CTAs running
GPGPU-Sim PTX: 15100000 instructions simulated : ctaid=(114,0,0) tid=(142,0,0)
GPGPU-Sim PTX: 15200000 instructions simulated : ctaid=(122,0,0) tid=(223,0,0)
GPGPU-Sim PTX: 15300000 instructions simulated : ctaid=(94,0,0) tid=(110,0,0)
GPGPU-Sim PTX: 15400000 instructions simulated : ctaid=(99,0,0) tid=(124,0,0)
GPGPU-Sim uArch: Shader 4 finished CTA #2 (39382,0), 5 CTAs running
GPGPU-Sim uArch: cycles simulated: 39500  inst.: 14735625 (ipc=373.1) sim_rate=398260 (inst/sec) elapsed = 0:0:00:37 / Sun Feb 28 21:42:59 2016
GPGPU-Sim PTX: 15500000 instructions simulated : ctaid=(70,0,0) tid=(3,0,0)
GPGPU-Sim uArch: Shader 14 finished CTA #2 (39746,0), 5 CTAs running
GPGPU-Sim PTX: 15600000 instructions simulated : ctaid=(72,0,0) tid=(226,0,0)
GPGPU-Sim uArch: Shader 2 finished CTA #2 (39840,0), 5 CTAs running
GPGPU-Sim PTX: 15700000 instructions simulated : ctaid=(46,0,0) tid=(8,0,0)
GPGPU-Sim uArch: Shader 11 finished CTA #2 (40129,0), 5 CTAs running
GPGPU-Sim uArch: Shader 6 finished CTA #2 (40159,0), 5 CTAs running
GPGPU-Sim PTX: 15800000 instructions simulated : ctaid=(98,0,0) tid=(101,0,0)
GPGPU-Sim uArch: Shader 0 finished CTA #2 (40467,0), 5 CTAs running
GPGPU-Sim uArch: cycles simulated: 40500  inst.: 15133787 (ipc=373.7) sim_rate=398257 (inst/sec) elapsed = 0:0:00:38 / Sun Feb 28 21:43:00 2016
GPGPU-Sim PTX: 15900000 instructions simulated : ctaid=(80,0,0) tid=(148,0,0)
GPGPU-Sim PTX: 16000000 instructions simulated : ctaid=(111,0,0) tid=(191,0,0)
GPGPU-Sim PTX: 16100000 instructions simulated : ctaid=(115,0,0) tid=(243,0,0)
GPGPU-Sim PTX: 16200000 instructions simulated : ctaid=(73,0,0) tid=(149,0,0)
GPGPU-Sim uArch: Shader 10 finished CTA #3 (41426,0), 5 CTAs running
GPGPU-Sim PTX: 16300000 instructions simulated : ctaid=(46,0,0) tid=(19,0,0)
GPGPU-Sim uArch: cycles simulated: 41500  inst.: 15550673 (ipc=374.7) sim_rate=398735 (inst/sec) elapsed = 0:0:00:39 / Sun Feb 28 21:43:01 2016
GPGPU-Sim PTX: 16400000 instructions simulated : ctaid=(64,0,0) tid=(90,0,0)
GPGPU-Sim PTX: 16500000 instructions simulated : ctaid=(49,0,0) tid=(137,0,0)
GPGPU-Sim PTX: 16600000 instructions simulated : ctaid=(70,0,0) tid=(108,0,0)
GPGPU-Sim PTX: 16700000 instructions simulated : ctaid=(57,0,0) tid=(220,0,0)
GPGPU-Sim uArch: cycles simulated: 42500  inst.: 15950744 (ipc=375.3) sim_rate=398768 (inst/sec) elapsed = 0:0:00:40 / Sun Feb 28 21:43:02 2016
GPGPU-Sim PTX: 16800000 instructions simulated : ctaid=(100,0,0) tid=(37,0,0)
GPGPU-Sim PTX: 16900000 instructions simulated : ctaid=(106,0,0) tid=(62,0,0)
GPGPU-Sim PTX: 17000000 instructions simulated : ctaid=(48,0,0) tid=(11,0,0)
GPGPU-Sim uArch: Shader 8 finished CTA #3 (43207,0), 5 CTAs running
GPGPU-Sim uArch: Shader 12 finished CTA #3 (43324,0), 5 CTAs running
GPGPU-Sim uArch: Shader 3 finished CTA #3 (43338,0), 5 CTAs running
GPGPU-Sim PTX: 17100000 instructions simulated : ctaid=(115,0,0) tid=(114,0,0)
GPGPU-Sim uArch: Shader 5 finished CTA #3 (43467,0), 5 CTAs running
GPGPU-Sim PTX: 17200000 instructions simulated : ctaid=(77,0,0) tid=(114,0,0)
GPGPU-Sim uArch: Shader 13 finished CTA #3 (43953,0), 5 CTAs running
GPGPU-Sim uArch: cycles simulated: 44000  inst.: 16499577 (ipc=375.0) sim_rate=402428 (inst/sec) elapsed = 0:0:00:41 / Sun Feb 28 21:43:03 2016
GPGPU-Sim PTX: 17300000 instructions simulated : ctaid=(50,0,0) tid=(162,0,0)
GPGPU-Sim uArch: Shader 9 finished CTA #3 (44234,0), 5 CTAs running
GPGPU-Sim PTX: 17400000 instructions simulated : ctaid=(55,0,0) tid=(32,0,0)
GPGPU-Sim PTX: 17500000 instructions simulated : ctaid=(58,0,0) tid=(193,0,0)
GPGPU-Sim uArch: Shader 1 finished CTA #3 (44625,0), 5 CTAs running
GPGPU-Sim PTX: 17600000 instructions simulated : ctaid=(74,0,0) tid=(161,0,0)
GPGPU-Sim uArch: Shader 7 finished CTA #3 (44912,0), 4 CTAs running
GPGPU-Sim uArch: cycles simulated: 45000  inst.: 16845978 (ipc=374.4) sim_rate=401094 (inst/sec) elapsed = 0:0:00:42 / Sun Feb 28 21:43:04 2016
GPGPU-Sim PTX: 17700000 instructions simulated : ctaid=(88,0,0) tid=(99,0,0)
GPGPU-Sim uArch: Shader 11 finished CTA #3 (45225,0), 4 CTAs running
GPGPU-Sim uArch: Shader 14 finished CTA #3 (45311,0), 4 CTAs running
GPGPU-Sim PTX: 17800000 instructions simulated : ctaid=(76,0,0) tid=(196,0,0)
GPGPU-Sim PTX: 17900000 instructions simulated : ctaid=(88,0,0) tid=(93,0,0)
GPGPU-Sim PTX: 18000000 instructions simulated : ctaid=(97,0,0) tid=(41,0,0)
GPGPU-Sim uArch: cycles simulated: 46000  inst.: 17178763 (ipc=373.5) sim_rate=399506 (inst/sec) elapsed = 0:0:00:43 / Sun Feb 28 21:43:05 2016
GPGPU-Sim PTX: 18100000 instructions simulated : ctaid=(59,0,0) tid=(55,0,0)
GPGPU-Sim PTX: 18200000 instructions simulated : ctaid=(84,0,0) tid=(94,0,0)
GPGPU-Sim PTX: 18300000 instructions simulated : ctaid=(74,0,0) tid=(204,0,0)
GPGPU-Sim uArch: Shader 6 finished CTA #3 (46953,0), 4 CTAs running
GPGPU-Sim PTX: 18400000 instructions simulated : ctaid=(91,0,0) tid=(227,0,0)
GPGPU-Sim uArch: Shader 4 finished CTA #3 (47273,0), 4 CTAs running
GPGPU-Sim PTX: 18500000 instructions simulated : ctaid=(121,0,0) tid=(149,0,0)
GPGPU-Sim uArch: Shader 0 finished CTA #3 (47325,0), 4 CTAs running
GPGPU-Sim uArch: cycles simulated: 47500  inst.: 17729342 (ipc=373.2) sim_rate=402939 (inst/sec) elapsed = 0:0:00:44 / Sun Feb 28 21:43:06 2016
GPGPU-Sim PTX: 18600000 instructions simulated : ctaid=(73,0,0) tid=(69,0,0)
GPGPU-Sim PTX: 18700000 instructions simulated : ctaid=(64,0,0) tid=(175,0,0)
GPGPU-Sim uArch: Shader 7 finished CTA #4 (47802,0), 3 CTAs running
GPGPU-Sim PTX: 18800000 instructions simulated : ctaid=(87,0,0) tid=(187,0,0)
GPGPU-Sim uArch: Shader 10 finished CTA #4 (48204,0), 4 CTAs running
GPGPU-Sim PTX: 18900000 instructions simulated : ctaid=(81,0,0) tid=(140,0,0)
GPGPU-Sim uArch: Shader 2 finished CTA #3 (48292,0), 4 CTAs running
GPGPU-Sim PTX: 19000000 instructions simulated : ctaid=(117,0,0) tid=(217,0,0)
GPGPU-Sim uArch: cycles simulated: 48500  inst.: 18163194 (ipc=374.5) sim_rate=403626 (inst/sec) elapsed = 0:0:00:45 / Sun Feb 28 21:43:07 2016
GPGPU-Sim PTX: 19100000 instructions simulated : ctaid=(62,0,0) tid=(107,0,0)
GPGPU-Sim PTX: 19200000 instructions simulated : ctaid=(67,0,0) tid=(231,0,0)
GPGPU-Sim uArch: Shader 12 finished CTA #4 (48902,0), 4 CTAs running
GPGPU-Sim uArch: Shader 14 finished CTA #4 (48902,0), 3 CTAs running
GPGPU-Sim uArch: Shader 13 finished CTA #4 (48978,0), 4 CTAs running
GPGPU-Sim PTX: 19300000 instructions simulated : ctaid=(75,0,0) tid=(59,0,0)
GPGPU-Sim uArch: Shader 8 finished CTA #4 (49229,0), 4 CTAs running
GPGPU-Sim PTX: 19400000 instructions simulated : ctaid=(65,0,0) tid=(109,0,0)
GPGPU-Sim uArch: Shader 3 finished CTA #4 (49388,0), 4 CTAs running
GPGPU-Sim PTX: 19500000 instructions simulated : ctaid=(83,0,0) tid=(84,0,0)
GPGPU-Sim uArch: cycles simulated: 49500  inst.: 18623298 (ipc=376.2) sim_rate=404854 (inst/sec) elapsed = 0:0:00:46 / Sun Feb 28 21:43:08 2016
GPGPU-Sim PTX: 19600000 instructions simulated : ctaid=(93,0,0) tid=(71,0,0)
GPGPU-Sim PTX: 19700000 instructions simulated : ctaid=(98,0,0) tid=(42,0,0)
GPGPU-Sim uArch: Shader 1 finished CTA #4 (49886,0), 4 CTAs running
GPGPU-Sim PTX: 19800000 instructions simulated : ctaid=(85,0,0) tid=(108,0,0)
GPGPU-Sim uArch: Shader 5 finished CTA #4 (50092,0), 4 CTAs running
GPGPU-Sim PTX: 19900000 instructions simulated : ctaid=(76,0,0) tid=(35,0,0)
GPGPU-Sim uArch: Shader 11 finished CTA #4 (50153,0), 3 CTAs running
GPGPU-Sim PTX: 20000000 instructions simulated : ctaid=(63,0,0) tid=(163,0,0)
GPGPU-Sim PTX: 20100000 instructions simulated : ctaid=(122,0,0) tid=(81,0,0)
GPGPU-Sim uArch: cycles simulated: 50500  inst.: 19195009 (ipc=380.1) sim_rate=408404 (inst/sec) elapsed = 0:0:00:47 / Sun Feb 28 21:43:09 2016
GPGPU-Sim PTX: 20200000 instructions simulated : ctaid=(127,0,0) tid=(163,0,0)
GPGPU-Sim PTX: 20300000 instructions simulated : ctaid=(107,0,0) tid=(173,0,0)
GPGPU-Sim uArch: Shader 9 finished CTA #4 (50878,0), 4 CTAs running
GPGPU-Sim uArch: Shader 4 finished CTA #4 (51005,0), 3 CTAs running
GPGPU-Sim PTX: 20400000 instructions simulated : ctaid=(127,0,0) tid=(166,0,0)
GPGPU-Sim uArch: Shader 6 finished CTA #4 (51173,0), 3 CTAs running
GPGPU-Sim PTX: 20500000 instructions simulated : ctaid=(96,0,0) tid=(19,0,0)
GPGPU-Sim PTX: 20600000 instructions simulated : ctaid=(97,0,0) tid=(70,0,0)
GPGPU-Sim uArch: cycles simulated: 51500  inst.: 19706772 (ipc=382.7) sim_rate=410557 (inst/sec) elapsed = 0:0:00:48 / Sun Feb 28 21:43:10 2016
GPGPU-Sim uArch: Shader 0 finished CTA #4 (51515,0), 3 CTAs running
GPGPU-Sim uArch: Shader 2 finished CTA #4 (51566,0), 3 CTAs running
GPGPU-Sim PTX: 20700000 instructions simulated : ctaid=(124,0,0) tid=(47,0,0)
GPGPU-Sim uArch: Shader 10 finished CTA #5 (51631,0), 3 CTAs running
GPGPU-Sim PTX: 20800000 instructions simulated : ctaid=(83,0,0) tid=(21,0,0)
GPGPU-Sim PTX: 20900000 instructions simulated : ctaid=(103,0,0) tid=(91,0,0)
GPGPU-Sim uArch: Shader 7 finished CTA #5 (52079,0), 2 CTAs running
GPGPU-Sim PTX: 21000000 instructions simulated : ctaid=(101,0,0) tid=(27,0,0)
GPGPU-Sim PTX: 21100000 instructions simulated : ctaid=(112,0,0) tid=(177,0,0)
GPGPU-Sim uArch: Shader 1 finished CTA #5 (52497,0), 3 CTAs running
GPGPU-Sim uArch: cycles simulated: 52500  inst.: 20210618 (ipc=385.0) sim_rate=412461 (inst/sec) elapsed = 0:0:00:49 / Sun Feb 28 21:43:11 2016
GPGPU-Sim PTX: 21200000 instructions simulated : ctaid=(117,0,0) tid=(58,0,0)
GPGPU-Sim PTX: 21300000 instructions simulated : ctaid=(112,0,0) tid=(82,0,0)
GPGPU-Sim PTX: 21400000 instructions simulated : ctaid=(88,0,0) tid=(127,0,0)
GPGPU-Sim uArch: Shader 12 finished CTA #5 (52978,0), 3 CTAs running
GPGPU-Sim uArch: Shader 9 finished CTA #5 (52986,0), 3 CTAs running
GPGPU-Sim uArch: Shader 13 finished CTA #5 (53053,0), 3 CTAs running
GPGPU-Sim PTX: 21500000 instructions simulated : ctaid=(112,0,0) tid=(111,0,0)
GPGPU-Sim uArch: Shader 8 finished CTA #5 (53134,0), 3 CTAs running
GPGPU-Sim uArch: Shader 3 finished CTA #5 (53254,0), 3 CTAs running
GPGPU-Sim PTX: 21600000 instructions simulated : ctaid=(101,0,0) tid=(180,0,0)
GPGPU-Sim PTX: 21700000 instructions simulated : ctaid=(105,0,0) tid=(128,0,0)
GPGPU-Sim uArch: cycles simulated: 53500  inst.: 20702295 (ipc=387.0) sim_rate=414045 (inst/sec) elapsed = 0:0:00:50 / Sun Feb 28 21:43:12 2016
GPGPU-Sim PTX: 21800000 instructions simulated : ctaid=(100,0,0) tid=(31,0,0)
GPGPU-Sim PTX: 21900000 instructions simulated : ctaid=(118,0,0) tid=(88,0,0)
GPGPU-Sim PTX: 22000000 instructions simulated : ctaid=(124,0,0) tid=(123,0,0)
GPGPU-Sim uArch: Shader 11 finished CTA #5 (54179,0), 2 CTAs running
GPGPU-Sim PTX: 22100000 instructions simulated : ctaid=(116,0,0) tid=(53,0,0)
GPGPU-Sim uArch: Shader 14 finished CTA #5 (54294,0), 2 CTAs running
GPGPU-Sim PTX: 22200000 instructions simulated : ctaid=(119,0,0) tid=(136,0,0)
GPGPU-Sim uArch: Shader 5 finished CTA #5 (54735,0), 3 CTAs running
GPGPU-Sim PTX: 22300000 instructions simulated : ctaid=(126,0,0) tid=(243,0,0)
GPGPU-Sim uArch: Shader 6 finished CTA #5 (54825,0), 2 CTAs running
GPGPU-Sim PTX: 22400000 instructions simulated : ctaid=(126,0,0) tid=(100,0,0)
GPGPU-Sim uArch: cycles simulated: 55000  inst.: 21368126 (ipc=388.5) sim_rate=418982 (inst/sec) elapsed = 0:0:00:51 / Sun Feb 28 21:43:13 2016
GPGPU-Sim PTX: 22500000 instructions simulated : ctaid=(96,0,0) tid=(214,0,0)
GPGPU-Sim uArch: Shader 4 finished CTA #5 (55379,0), 2 CTAs running
GPGPU-Sim PTX: 22600000 instructions simulated : ctaid=(118,0,0) tid=(54,0,0)
GPGPU-Sim uArch: Shader 2 finished CTA #5 (55504,0), 2 CTAs running
GPGPU-Sim uArch: Shader 0 finished CTA #5 (55561,0), 2 CTAs running
GPGPU-Sim PTX: 22700000 instructions simulated : ctaid=(111,0,0) tid=(201,0,0)
GPGPU-Sim PTX: 22800000 instructions simulated : ctaid=(103,0,0) tid=(67,0,0)
GPGPU-Sim uArch: cycles simulated: 56000  inst.: 21766642 (ipc=388.7) sim_rate=418589 (inst/sec) elapsed = 0:0:00:52 / Sun Feb 28 21:43:14 2016
GPGPU-Sim PTX: 22900000 instructions simulated : ctaid=(123,0,0) tid=(103,0,0)
GPGPU-Sim PTX: 23000000 instructions simulated : ctaid=(119,0,0) tid=(159,0,0)
GPGPU-Sim PTX: 23100000 instructions simulated : ctaid=(97,0,0) tid=(209,0,0)
GPGPU-Sim uArch: Shader 7 finished CTA #0 (56915,0), 1 CTAs running
GPGPU-Sim PTX: 23200000 instructions simulated : ctaid=(94,0,0) tid=(89,0,0)
GPGPU-Sim PTX: 23300000 instructions simulated : ctaid=(109,0,0) tid=(101,0,0)
GPGPU-Sim uArch: cycles simulated: 57500  inst.: 22300848 (ipc=387.8) sim_rate=420770 (inst/sec) elapsed = 0:0:00:53 / Sun Feb 28 21:43:15 2016
GPGPU-Sim PTX: 23400000 instructions simulated : ctaid=(124,0,0) tid=(167,0,0)
GPGPU-Sim PTX: 23500000 instructions simulated : ctaid=(92,0,0) tid=(237,0,0)
GPGPU-Sim PTX: 23600000 instructions simulated : ctaid=(125,0,0) tid=(252,0,0)
GPGPU-Sim uArch: Shader 10 finished CTA #0 (58185,0), 2 CTAs running
GPGPU-Sim PTX: 23700000 instructions simulated : ctaid=(96,0,0) tid=(195,0,0)
GPGPU-Sim uArch: Shader 14 finished CTA #0 (58306,0), 1 CTAs running
GPGPU-Sim PTX: 23800000 instructions simulated : ctaid=(119,0,0) tid=(57,0,0)
GPGPU-Sim uArch: cycles simulated: 58500  inst.: 22708512 (ipc=388.2) sim_rate=420528 (inst/sec) elapsed = 0:0:00:54 / Sun Feb 28 21:43:16 2016
GPGPU-Sim PTX: 23900000 instructions simulated : ctaid=(108,0,0) tid=(125,0,0)
GPGPU-Sim PTX: 24000000 instructions simulated : ctaid=(98,0,0) tid=(7,0,0)
GPGPU-Sim uArch: Shader 6 finished CTA #0 (59092,0), 1 CTAs running
GPGPU-Sim uArch: Shader 9 finished CTA #0 (59104,0), 2 CTAs running
GPGPU-Sim uArch: Shader 8 finished CTA #0 (59106,0), 2 CTAs running
GPGPU-Sim PTX: 24100000 instructions simulated : ctaid=(106,0,0) tid=(11,0,0)
GPGPU-Sim PTX: 24200000 instructions simulated : ctaid=(93,0,0) tid=(69,0,0)
GPGPU-Sim uArch: Shader 13 finished CTA #0 (59534,0), 2 CTAs running
GPGPU-Sim uArch: Shader 5 finished CTA #0 (59607,0), 2 CTAs running
GPGPU-Sim uArch: Shader 11 finished CTA #0 (59646,0), 1 CTAs running
GPGPU-Sim PTX: 24300000 instructions simulated : ctaid=(123,0,0) tid=(224,0,0)
GPGPU-Sim uArch: Shader 12 finished CTA #0 (59917,0), 2 CTAs running
GPGPU-Sim uArch: Shader 0 finished CTA #0 (59969,0), 1 CTAs running
GPGPU-Sim uArch: cycles simulated: 60000  inst.: 23274087 (ipc=387.9) sim_rate=423165 (inst/sec) elapsed = 0:0:00:55 / Sun Feb 28 21:43:17 2016
GPGPU-Sim PTX: 24400000 instructions simulated : ctaid=(94,0,0) tid=(85,0,0)
GPGPU-Sim PTX: 24500000 instructions simulated : ctaid=(124,0,0) tid=(6,0,0)
GPGPU-Sim uArch: Shader 7 finished CTA #1 (60471,0), 0 CTAs running
GPGPU-Sim uArch: Shader 7 empty (release kernel 1 '_Z13scalarProdGPUPfS_S_ii').
GPGPU-Sim uArch: Shader 1 finished CTA #0 (60628,0), 2 CTAs running
GPGPU-Sim uArch: Shader 2 finished CTA #0 (60630,0), 1 CTAs running
GPGPU-Sim PTX: 24600000 instructions simulated : ctaid=(94,0,0) tid=(207,0,0)
GPGPU-Sim uArch: Shader 3 finished CTA #0 (61003,0), 2 CTAs running
GPGPU-Sim PTX: 24700000 instructions simulated : ctaid=(108,0,0) tid=(117,0,0)
GPGPU-Sim uArch: Shader 4 finished CTA #0 (61073,0), 1 CTAs running
GPGPU-Sim PTX: 24800000 instructions simulated : ctaid=(120,0,0) tid=(122,0,0)
GPGPU-Sim uArch: Shader 9 finished CTA #1 (61456,0), 1 CTAs running
GPGPU-Sim uArch: cycles simulated: 61500  inst.: 23733281 (ipc=385.9) sim_rate=423808 (inst/sec) elapsed = 0:0:00:56 / Sun Feb 28 21:43:18 2016
GPGPU-Sim PTX: 24900000 instructions simulated : ctaid=(109,0,0) tid=(177,0,0)
GPGPU-Sim uArch: Shader 14 finished CTA #1 (61844,0), 0 CTAs running
GPGPU-Sim uArch: Shader 14 empty (release kernel 1 '_Z13scalarProdGPUPfS_S_ii').
GPGPU-Sim PTX: 25000000 instructions simulated : ctaid=(108,0,0) tid=(1,0,0)
GPGPU-Sim PTX: 25100000 instructions simulated : ctaid=(109,0,0) tid=(11,0,0)
GPGPU-Sim uArch: Shader 0 finished CTA #1 (62236,0), 0 CTAs running
GPGPU-Sim uArch: Shader 0 empty (release kernel 1 '_Z13scalarProdGPUPfS_S_ii').
GPGPU-Sim uArch: Shader 10 finished CTA #1 (62335,0), 1 CTAs running
GPGPU-Sim uArch: Shader 6 finished CTA #1 (62381,0), 0 CTAs running
GPGPU-Sim uArch: Shader 6 empty (release kernel 1 '_Z13scalarProdGPUPfS_S_ii').
GPGPU-Sim PTX: 25200000 instructions simulated : ctaid=(127,0,0) tid=(55,0,0)
GPGPU-Sim uArch: Shader 13 finished CTA #1 (62571,0), 1 CTAs running
GPGPU-Sim uArch: Shader 8 finished CTA #1 (62601,0), 1 CTAs running
GPGPU-Sim uArch: Shader 11 finished CTA #1 (62747,0), 0 CTAs running
GPGPU-Sim uArch: Shader 11 empty (release kernel 1 '_Z13scalarProdGPUPfS_S_ii').
GPGPU-Sim uArch: Shader 1 finished CTA #1 (62897,0), 1 CTAs running
GPGPU-Sim uArch: Shader 5 finished CTA #1 (62934,0), 1 CTAs running
GPGPU-Sim PTX: 25300000 instructions simulated : ctaid=(125,0,0) tid=(41,0,0)
GPGPU-Sim uArch: Shader 12 finished CTA #1 (63074,0), 1 CTAs running
GPGPU-Sim uArch: Shader 3 finished CTA #1 (63406,0), 1 CTAs running
GPGPU-Sim uArch: Shader 4 finished CTA #1 (63484,0), 0 CTAs running
GPGPU-Sim uArch: Shader 4 empty (release kernel 1 '_Z13scalarProdGPUPfS_S_ii').
GPGPU-Sim uArch: cycles simulated: 63500  inst.: 24214946 (ipc=381.3) sim_rate=424823 (inst/sec) elapsed = 0:0:00:57 / Sun Feb 28 21:43:19 2016
GPGPU-Sim PTX: 25400000 instructions simulated : ctaid=(123,0,0) tid=(79,0,0)
GPGPU-Sim uArch: Shader 10 finished CTA #2 (63693,0), 0 CTAs running
GPGPU-Sim uArch: Shader 10 empty (release kernel 1 '_Z13scalarProdGPUPfS_S_ii').
GPGPU-Sim uArch: Shader 2 finished CTA #1 (64163,0), 0 CTAs running
GPGPU-Sim uArch: Shader 2 empty (release kernel 1 '_Z13scalarProdGPUPfS_S_ii').
GPGPU-Sim uArch: Shader 8 finished CTA #2 (64275,0), 0 CTAs running
GPGPU-Sim uArch: Shader 8 empty (release kernel 1 '_Z13scalarProdGPUPfS_S_ii').
GPGPU-Sim PTX: 25500000 instructions simulated : ctaid=(123,0,0) tid=(191,0,0)
GPGPU-Sim uArch: Shader 13 finished CTA #2 (64794,0), 0 CTAs running
GPGPU-Sim uArch: Shader 13 empty (release kernel 1 '_Z13scalarProdGPUPfS_S_ii').
GPGPU-Sim uArch: Shader 12 finished CTA #2 (64814,0), 0 CTAs running
GPGPU-Sim uArch: Shader 12 empty (release kernel 1 '_Z13scalarProdGPUPfS_S_ii').
GPGPU-Sim PTX: 25600000 instructions simulated : ctaid=(125,0,0) tid=(0,0,0)
GPGPU-Sim uArch: Shader 1 finished CTA #2 (65284,0), 0 CTAs running
GPGPU-Sim uArch: Shader 1 empty (release kernel 1 '_Z13scalarProdGPUPfS_S_ii').
GPGPU-Sim uArch: Shader 9 finished CTA #2 (65491,0), 0 CTAs running
GPGPU-Sim uArch: Shader 9 empty (release kernel 1 '_Z13scalarProdGPUPfS_S_ii').
GPGPU-Sim uArch: Shader 3 finished CTA #2 (66037,0), 0 CTAs running
GPGPU-Sim uArch: Shader 3 empty (release kernel 1 '_Z13scalarProdGPUPfS_S_ii').
GPGPU-Sim uArch: Shader 5 finished CTA #2 (66108,0), 0 CTAs running
GPGPU-Sim uArch: Shader 5 empty (release kernel 1 '_Z13scalarProdGPUPfS_S_ii').
GPGPU-Sim uArch: GPU detected kernel '_Z13scalarProdGPUPfS_S_ii' finished on shader 5.
kernel_name = _Z13scalarProdGPUPfS_S_ii 
kernel_launch_uid = 1 
gpu_sim_cycle = 66109
gpu_sim_insn = 24441600
gpu_ipc =     369.7167
gpu_tot_sim_cycle = 66109
gpu_tot_sim_insn = 24441600
gpu_tot_ipc =     369.7167
gpu_tot_issued_cta = 128
gpu_stall_dramfull = 42669
gpu_stall_icnt2sh    = 344612
gpu_total_sim_rate=428800

========= Core cache stats =========
L1I_cache:
	L1I_total_cache_accesses = 463616
	L1I_total_cache_misses = 2068
	L1I_total_cache_miss_rate = 0.0045
	L1I_total_cache_pending_hits = 0
	L1I_total_cache_reservation_fails = 6316
L1D_cache:
	L1D_cache_core[0]: Access = 4112, Miss = 4112, Miss_rate = 1.000, Pending_hits = 0, Reservation_fails = 36813
	L1D_cache_core[1]: Access = 4626, Miss = 4626, Miss_rate = 1.000, Pending_hits = 0, Reservation_fails = 38306
	L1D_cache_core[2]: Access = 4112, Miss = 4112, Miss_rate = 1.000, Pending_hits = 0, Reservation_fails = 37348
	L1D_cache_core[3]: Access = 4626, Miss = 4626, Miss_rate = 1.000, Pending_hits = 0, Reservation_fails = 39158
	L1D_cache_core[4]: Access = 4112, Miss = 4112, Miss_rate = 1.000, Pending_hits = 0, Reservation_fails = 37522
	L1D_cache_core[5]: Access = 4626, Miss = 4626, Miss_rate = 1.000, Pending_hits = 0, Reservation_fails = 38879
	L1D_cache_core[6]: Access = 4112, Miss = 4112, Miss_rate = 1.000, Pending_hits = 0, Reservation_fails = 35408
	L1D_cache_core[7]: Access = 4112, Miss = 4112, Miss_rate = 1.000, Pending_hits = 0, Reservation_fails = 33951
	L1D_cache_core[8]: Access = 4626, Miss = 4626, Miss_rate = 1.000, Pending_hits = 0, Reservation_fails = 37481
	L1D_cache_core[9]: Access = 4626, Miss = 4626, Miss_rate = 1.000, Pending_hits = 0, Reservation_fails = 36747
	L1D_cache_core[10]: Access = 4626, Miss = 4626, Miss_rate = 1.000, Pending_hits = 0, Reservation_fails = 36006
	L1D_cache_core[11]: Access = 4112, Miss = 4112, Miss_rate = 1.000, Pending_hits = 0, Reservation_fails = 35843
	L1D_cache_core[12]: Access = 4626, Miss = 4626, Miss_rate = 1.000, Pending_hits = 0, Reservation_fails = 38126
	L1D_cache_core[13]: Access = 4626, Miss = 4626, Miss_rate = 1.000, Pending_hits = 0, Reservation_fails = 37670
	L1D_cache_core[14]: Access = 4112, Miss = 4112, Miss_rate = 1.000, Pending_hits = 0, Reservation_fails = 35334
	L1D_total_cache_accesses = 65792
	L1D_total_cache_misses = 65792
	L1D_total_cache_miss_rate = 1.0000
	L1D_total_cache_pending_hits = 0
	L1D_total_cache_reservation_fails = 554592
	L1D_cache_data_port_util = 0.000
	L1D_cache_fill_port_util = 0.068
L1C_cache:
	L1C_total_cache_accesses = 19712
	L1C_total_cache_misses = 480
	L1C_total_cache_miss_rate = 0.0244
	L1C_total_cache_pending_hits = 0
	L1C_total_cache_reservation_fails = 3264
L1T_cache:
	L1T_total_cache_accesses = 0
	L1T_total_cache_misses = 0
	L1T_total_cache_pending_hits = 0
	L1T_total_cache_reservation_fails = 0

Total_core_cache_stats:
	Total_core_cache_stats_breakdown[GLOBAL_ACC_R][MISS] = 65536
	Total_core_cache_stats_breakdown[GLOBAL_ACC_R][RESERVATION_FAIL] = 553117
	Total_core_cache_stats_breakdown[CONST_ACC_R][HIT] = 19232
	Total_core_cache_stats_breakdown[CONST_ACC_R][MISS] = 480
	Total_core_cache_stats_breakdown[CONST_ACC_R][RESERVATION_FAIL] = 3264
	Total_core_cache_stats_breakdown[GLOBAL_ACC_W][MISS] = 256
	Total_core_cache_stats_breakdown[GLOBAL_ACC_W][RESERVATION_FAIL] = 1475
	Total_core_cache_stats_breakdown[INST_ACC_R][HIT] = 461548
	Total_core_cache_stats_breakdown[INST_ACC_R][MISS] = 2068
	Total_core_cache_stats_breakdown[INST_ACC_R][RESERVATION_FAIL] = 6316
Shader 0 warp_id issue ditsribution:
warp_id:
0, 1, 2, 3, 4, 5, 6, 7, 8, 9, 10, 11, 12, 13, 14, 15, 16, 17, 18, 19, 20, 21, 22, 23, 24, 25, 26, 27, 28, 29, 30, 31, 32, 33, 34, 35, 36, 37, 38, 39, 40, 41, 42, 43, 44, 45, 46, 47, 
distro:
2148, 1644, 1564, 1564, 1484, 1484, 1484, 1484, 2148, 1644, 1564, 1564, 1484, 1484, 1484, 1484, 1074, 822, 782, 782, 742, 742, 742, 742, 1074, 822, 782, 782, 742, 742, 742, 742, 1074, 822, 782, 782, 742, 742, 742, 742, 1074, 822, 782, 782, 742, 742, 742, 742, 
gpgpu_n_tot_thrd_icount = 26329088
gpgpu_n_tot_w_icount = 822784
gpgpu_n_stall_shd_mem = 557856
gpgpu_n_mem_read_local = 0
gpgpu_n_mem_write_local = 0
gpgpu_n_mem_read_global = 65536
gpgpu_n_mem_write_global = 256
gpgpu_n_mem_texture = 0
gpgpu_n_mem_const = 15
gpgpu_n_load_insn  = 2097152
gpgpu_n_store_insn = 256
gpgpu_n_shmem_insn = 1048064
gpgpu_n_tex_insn = 0
gpgpu_n_const_mem_insn = 0
gpgpu_n_param_mem_insn = 622848
gpgpu_n_shmem_bkconflict = 0
gpgpu_n_cache_bkconflict = 0
gpgpu_n_intrawarp_mshr_merge = 0
gpgpu_n_cmem_portconflict = 3264
gpgpu_stall_shd_mem[c_mem][bk_conf] = 3264
gpgpu_stall_shd_mem[c_mem][mshr_rc] = 0
gpgpu_stall_shd_mem[c_mem][icnt_rc] = 0
gpgpu_stall_shd_mem[c_mem][data_port_stall] = 0
gpgpu_stall_shd_mem[t_mem][mshr_rc] = 0
gpgpu_stall_shd_mem[t_mem][icnt_rc] = 0
gpgpu_stall_shd_mem[t_mem][data_port_stall] = 0
gpgpu_stall_shd_mem[s_mem][bk_conf] = 0
gpgpu_stall_shd_mem[gl_mem][bk_conf] = 0
gpgpu_stall_shd_mem[gl_mem][coal_stall] = 554592
gpgpu_stall_shd_mem[gl_mem][data_port_stall] = 0
gpgpu_stall_shd_mem[g_mem_ld][mshr_rc] = 0
gpgpu_stall_shd_mem[g_mem_ld][icnt_rc] = 0
gpgpu_stall_shd_mem[g_mem_ld][wb_icnt_rc] = 0
gpgpu_stall_shd_mem[g_mem_ld][wb_rsrv_fail] = 0
gpgpu_stall_shd_mem[g_mem_st][mshr_rc] = 0
gpgpu_stall_shd_mem[g_mem_st][icnt_rc] = 0
gpgpu_stall_shd_mem[g_mem_st][wb_icnt_rc] = 0
gpgpu_stall_shd_mem[g_mem_st][wb_rsrv_fail] = 0
gpgpu_stall_shd_mem[l_mem_ld][mshr_rc] = 0
gpgpu_stall_shd_mem[l_mem_ld][icnt_rc] = 0
gpgpu_stall_shd_mem[l_mem_ld][wb_icnt_rc] = 0
gpgpu_stall_shd_mem[l_mem_ld][wb_rsrv_fail] = 0
gpgpu_stall_shd_mem[l_mem_st][mshr_rc] = 0
gpgpu_stall_shd_mem[l_mem_st][icnt_rc] = 0
gpgpu_stall_shd_mem[l_mem_ld][wb_icnt_rc] = 0
gpgpu_stall_shd_mem[l_mem_ld][wb_rsrv_fail] = 0
gpu_reg_bank_conflict_stalls = 0
Warp Occupancy Distribution:
Stall:780633	W0_Idle:27253	W0_Scoreboard:285004	W1:6656	W2:5120	W3:0	W4:5120	W5:0	W6:0	W7:0	W8:5120	W9:0	W10:0	W11:0	W12:0	W13:0	W14:0	W15:0	W16:5120	W17:0	W18:0	W19:0	W20:0	W21:0	W22:0	W23:0	W24:0	W25:0	W26:0	W27:0	W28:0	W29:0	W30:0	W31:0	W32:795648
traffic_breakdown_coretomem[CONST_ACC_R] = 120 {8:15,}
traffic_breakdown_coretomem[GLOBAL_ACC_R] = 524288 {8:65536,}
traffic_breakdown_coretomem[GLOBAL_ACC_W] = 10240 {40:256,}
traffic_breakdown_coretomem[INST_ACC_R] = 840 {8:105,}
traffic_breakdown_memtocore[CONST_ACC_R] = 1080 {72:15,}
traffic_breakdown_memtocore[GLOBAL_ACC_R] = 8912896 {136:65536,}
traffic_breakdown_memtocore[GLOBAL_ACC_W] = 2048 {8:256,}
traffic_breakdown_memtocore[INST_ACC_R] = 14280 {136:105,}
maxmrqlatency = 332 
maxdqlatency = 0 
maxmflatency = 801 
averagemflatency = 353 
max_icnt2mem_latency = 456 
max_icnt2sh_latency = 66108 
mrq_lat_table:42592 	1546 	2017 	4147 	7560 	5283 	2223 	197 	6 	0 	0 	0 	0 	0 	0 	0 	0 	0 	0 	0 	0 	0 	0 	0 	0 	0 	0 	0 	0 	0 	0 	0 	
dq_lat_table:0 	0 	0 	0 	0 	0 	0 	0 	0 	0 	0 	0 	0 	0 	0 	0 	0 	0 	0 	0 	0 	0 	0 	0 	0 	0 	0 	0 	0 	0 	0 	0 	
mf_lat_table:0 	0 	0 	0 	0 	0 	0 	230 	63585 	1992 	0 	0 	0 	0 	0 	0 	0 	0 	0 	0 	0 	0 	0 	0 	0 	0 	0 	0 	0 	0 	0 	0 	
icnt2mem_lat_table:0 	0 	0 	57234 	5220 	1401 	1304 	689 	64 	0 	0 	0 	0 	0 	0 	0 	0 	0 	0 	0 	0 	0 	0 	0 	
icnt2sh_lat_table:0 	0 	0 	8479 	34869 	20677 	1523 	3 	0 	0 	0 	0 	0 	0 	75 	179 	2 	0 	0 	0 	0 	0 	0 	0 	
mf_lat_pw_table:0 	0 	0 	0 	0 	0 	0 	3 	124 	2 	0 	0 	0 	0 	0 	0 	0 	0 	0 	0 	0 	0 	0 	0 	0 	0 	0 	0 	0 	0 	0 	0 	
maximum concurrent accesses to same row:
dram[0]:         5         6         6         5         6         6         6         6         6         5         6         6         5         6         7         6 
dram[1]:         6         6         4         4         5         4         6         6         6         5         6         5         6         6         6         6 
dram[2]:         5         4         4         6         6         7         7         6         6         5         6         6         6         6         6        11 
dram[3]:         6         6         6         8         6         6         6         5         6         6         5         6         6         6         4        10 
dram[4]:         4         6         6         5         5         6         7         6         6         6         6         6         6         6        10        10 
dram[5]:         6         4         4         6         6         6         6         6         5         5         6         6         6         6         9         7 
maximum service time to same row:
dram[0]:      1046      1931      1913      1916      1929      1921      1938      1913      1906      1947      1910      2044      1932      1937      2040      1929 
dram[1]:      1431      1935      1917      1921      1933      1925      2038      1916      1913      1951      1915      2088      1937      1941      2066      1932 
dram[2]:      1939      1907      1921      1938      1943      1929      2041      1909      1915      1922      1919      1925      1941      2069      2065      2628 
dram[3]:      1944      1910      1925      1943      1947      1931      2044      1915      1919      1926      1922      1929      1945      2074      2204      2042 
dram[4]:      1922      1915      1907      1949      1913      1938      1904      1919      1937      1931      2029      1932      1929      2066      1921      2043 
dram[5]:      1926      1919      1910      1953      1916      1941      1909      1922      1941      1935      2034      1938      1932      2069      1925      1957 
average row accesses per activate:
dram[0]:  1.298077  1.328063  1.297297  1.309942  1.350495  1.321705  1.377691  1.375000  1.405190  1.359073  1.410309  1.367064  1.408805  1.320236  1.307393  1.304854 
dram[1]:  1.377551  1.272727  1.282443  1.299807  1.314065  1.270019  1.359073  1.308550  1.361702  1.303704  1.359841  1.332039  1.315068  1.365854  1.315068  1.287356 
dram[2]:  1.306202  1.328063  1.297297  1.289827  1.314065  1.330739  1.356455  1.396825  1.353846  1.351248  1.349112  1.353175  1.352113  1.385567  1.307393  1.360324 
dram[3]:  1.272212  1.344000  1.304854  1.328063  1.272388  1.295455  1.328302  1.399602  1.315888  1.410822  1.328155  1.375000  1.379877  1.335984  1.251397  1.377049 
dram[4]:  1.333333  1.330693  1.352113  1.297297  1.339882  1.307839  1.361702  1.348659  1.372320  1.346080  1.378486  1.391837  1.374233  1.328063  1.322835  1.322835 
dram[5]:  1.382716  1.287356  1.338645  1.328063  1.337255  1.257353  1.394059  1.348659  1.413655  1.301294  1.390688  1.342520  1.346693  1.335984  1.330693  1.280000 
average row locality = 65571/49076 = 1.336111
number of total memory accesses made:
dram[0]:         0         0         0         0         0         0         0         0         0         0         0         0         0         0         0         0 
dram[1]:         0         0         0         0         0         0         0         0         0         0         0         0         0         0         0         0 
dram[2]:         0         0         0         0         0         0         0         0         0         0         0         0         0         0         0         0 
dram[3]:         0         0         0         0         0         0         0         0         0         0         0         0         0         0         0         0 
dram[4]:         0         0         0         0         0         0         0         0         0         0         0         0         0         0         0         0 
dram[5]:         0         0         0         0         0         0         0         0         0         0         0         0         0         0         0         0 
total accesses: 0
min_bank_accesses = 0!
min_chip_accesses = 0!
number of total read accesses:
dram[0]:       675       672       672       672       682       682       704       704       704       704       684       684       672       672       672       672 
dram[1]:       675       672       672       672       682       682       704       704       704       704       684       684       672       672       672       672 
dram[2]:       674       672       672       672       682       684       704       704       704       704       684       682       672       672       672       672 
dram[3]:       673       672       672       672       682       684       704       704       704       704       684       682       672       672       672       672 
dram[4]:       672       672       672       672       682       684       704       704       704       704       685       682       672       672       672       672 
dram[5]:       672       672       672       672       682       684       704       704       704       704       684       682       672       672       672       672 
total reads: 65554
bank skew: 704/672 = 1.05
chip skew: 10927/10924 = 1.00
number of total write accesses:
dram[0]:         0         0         0         0         0         0         0         0         0         0         0         5         0         0         0         0 
dram[1]:         0         0         0         0         0         0         0         0         0         0         0         2         0         0         0         0 
dram[2]:         0         0         0         0         0         0         0         0         0         0         0         0         0         0         0         0 
dram[3]:         0         0         0         0         0         0         0         0         0         0         0         0         0         0         0         0 
dram[4]:         0         0         0         0         0         0         0         0         0         0         7         0         0         0         0         0 
dram[5]:         0         0         0         0         0         0         0         0         0         0         3         0         0         0         0         0 
total reads: 17
min_bank_accesses = 0!
min_chip_accesses = 0!
average mf latency per bank:
dram[0]:        361       360       364       360       359       362       359       365       350       353       355       374       357       363       353       359
dram[1]:        344       340       346       341       347       338       354       344       346       334       350       352       349       336       346       341
dram[2]:        348       362       354       368       351       362       355       370       349       361       354       366       354       361       356       364
dram[3]:        347       349       348       352       351       354       348       352       349       346       352       348       359       352       355       356
dram[4]:        370       347       371       353       375       353       370       354       368       348       391       349       373       352       372       349
dram[5]:        351       338       347       340       353       343       358       343       352       343       363       342       358       340       351       340
maximum mf latency per bank:
dram[0]:        693       695       708       624       734       607       651       697       655       712       627       710       696       707       654       665
dram[1]:        681       666       762       588       707       551       801       622       710       558       708       629       734       687       707       576
dram[2]:        661       697       706       704       736       755       752       747       745       750       610       727       729       688       632       624
dram[3]:        642       723       650       696       625       694       683       696       692       727       652       681       653       688       665       671
dram[4]:        636       636       659       669       645       721       707       670       677       749       665       711       730       721       715       599
dram[5]:        640       616       645       549       614       668       685       674       705       672       679       659       729       658       611       608

Number of Memory Banks Accessed per Memory Operation per Warp (from 0):
0	0	0	0	0	0	0	0	0	0	0	0	0	0	0	0	0	0	0	0	0	0	0	0	0	0	0	0	0	0	0	0	0	0	0	0	0	0	0	0	0	0	0	0	0	0	0	0	0	0	0	0	0	0	0	0	0	0	0	0	0	0	0	0	0	0	0	0	0	0	0	0	0	0	0	0	0	0	0	0	0	0	0	0	0	0	0	0	0	0	0	0	0	0	0	0	
Average # of Memory Banks Accessed per Memory Operation per Warp=-nan

position of mrq chosen
0	0	0	0	0	0	0	0	0	0	0	0	0	0	0	0	

average position of mrq chosen = -nan
Memory Partition 0: 
Cache L2_bank_000:
MSHR contents

Cache L2_bank_001:
MSHR contents

In Dram Latency Queue (total = 0): 
DRAM[0]: 16 bks, busW=4 BL=8 CL=12, tRRD=2 tCCD=6, tRCD=12 tRAS=28 tRP=12 tRC=40
n_cmd=87263 n_nop=49170 n_act=8124 n_pre=8108 n_req=10932 n_rd=21854 n_write=7 bw_util=0.501
n_activity=79415 dram_eff=0.5506
bk0: 1350a 63193i bk1: 1344a 64501i bk2: 1344a 63423i bk3: 1344a 63370i bk4: 1364a 63341i bk5: 1364a 62623i bk6: 1408a 62899i bk7: 1408a 61740i bk8: 1408a 64771i bk9: 1408a 63818i bk10: 1368a 64811i bk11: 1368a 63397i bk12: 1344a 64048i bk13: 1344a 63045i bk14: 1344a 62740i bk15: 1344a 63669i 
dram_util_bins: 0 0 0 0 0 0 0 0 0 0
dram_eff_bins: 0 0 0 0 0 0 0 0 0 0
mrqq: max=16 avg=1.86144
Memory Partition 1: 
Cache L2_bank_002:
MSHR contents

Cache L2_bank_003:
MSHR contents

In Dram Latency Queue (total = 0): 
DRAM[1]: 16 bks, busW=4 BL=8 CL=12, tRRD=2 tCCD=6, tRCD=12 tRAS=28 tRP=12 tRC=40
n_cmd=87263 n_nop=48859 n_act=8282 n_pre=8266 n_req=10929 n_rd=21854 n_write=2 bw_util=0.5009
n_activity=79802 dram_eff=0.5478
bk0: 1350a 65942i bk1: 1344a 65023i bk2: 1344a 64724i bk3: 1344a 64717i bk4: 1364a 64460i bk5: 1364a 63924i bk6: 1408a 63728i bk7: 1408a 62215i bk8: 1408a 65012i bk9: 1408a 64395i bk10: 1368a 65268i bk11: 1368a 64525i bk12: 1344a 64223i bk13: 1344a 65066i bk14: 1344a 64374i bk15: 1344a 64517i 
dram_util_bins: 0 0 0 0 0 0 0 0 0 0
dram_eff_bins: 0 0 0 0 0 0 0 0 0 0
mrqq: max=16 avg=1.4495
Memory Partition 2: 
Cache L2_bank_004:
MSHR contents

Cache L2_bank_005:
MSHR contents

In Dram Latency Queue (total = 0): 
DRAM[2]: 16 bks, busW=4 BL=8 CL=12, tRRD=2 tCCD=6, tRCD=12 tRAS=28 tRP=12 tRC=40
n_cmd=87263 n_nop=49109 n_act=8159 n_pre=8143 n_req=10926 n_rd=21852 n_write=0 bw_util=0.5008
n_activity=79639 dram_eff=0.5488
bk0: 1348a 64541i bk1: 1344a 64912i bk2: 1344a 64140i bk3: 1344a 63335i bk4: 1364a 63846i bk5: 1368a 63299i bk6: 1408a 62978i bk7: 1408a 62762i bk8: 1408a 64067i bk9: 1408a 63410i bk10: 1368a 64059i bk11: 1364a 63463i bk12: 1344a 64537i bk13: 1344a 64557i bk14: 1344a 63249i bk15: 1344a 63532i 
dram_util_bins: 0 0 0 0 0 0 0 0 0 0
dram_eff_bins: 0 0 0 0 0 0 0 0 0 0
mrqq: max=16 avg=1.83679
Memory Partition 3: 
Cache L2_bank_006:
MSHR contents

Cache L2_bank_007:
MSHR contents

In Dram Latency Queue (total = 0): 
DRAM[3]: 16 bks, busW=4 BL=8 CL=12, tRRD=2 tCCD=6, tRCD=12 tRAS=28 tRP=12 tRC=40
n_cmd=87263 n_nop=49015 n_act=8207 n_pre=8191 n_req=10925 n_rd=21850 n_write=0 bw_util=0.5008
n_activity=79776 dram_eff=0.5478
bk0: 1346a 64563i bk1: 1344a 65153i bk2: 1344a 64550i bk3: 1344a 64815i bk4: 1364a 63706i bk5: 1368a 63397i bk6: 1408a 63039i bk7: 1408a 62769i bk8: 1408a 63836i bk9: 1408a 65167i bk10: 1368a 64612i bk11: 1364a 64897i bk12: 1344a 64162i bk13: 1344a 64372i bk14: 1344a 62881i bk15: 1344a 64044i 
dram_util_bins: 0 0 0 0 0 0 0 0 0 0
dram_eff_bins: 0 0 0 0 0 0 0 0 0 0
mrqq: max=16 avg=1.68973
Memory Partition 4: 
Cache L2_bank_008:
MSHR contents

Cache L2_bank_009:
MSHR contents

In Dram Latency Queue (total = 0): 
DRAM[4]: 16 bks, busW=4 BL=8 CL=12, tRRD=2 tCCD=6, tRCD=12 tRAS=28 tRP=12 tRC=40
n_cmd=87263 n_nop=49151 n_act=8134 n_pre=8118 n_req=10932 n_rd=21850 n_write=10 bw_util=0.501
n_activity=79066 dram_eff=0.553
bk0: 1344a 64226i bk1: 1344a 64706i bk2: 1344a 64557i bk3: 1344a 63850i bk4: 1364a 62819i bk5: 1368a 62726i bk6: 1408a 62147i bk7: 1408a 61965i bk8: 1408a 64190i bk9: 1408a 63870i bk10: 1370a 62893i bk11: 1364a 64449i bk12: 1344a 64196i bk13: 1344a 63919i bk14: 1344a 63202i bk15: 1344a 63366i 
dram_util_bins: 0 0 0 0 0 0 0 0 0 0
dram_eff_bins: 0 0 0 0 0 0 0 0 0 0
mrqq: max=16 avg=1.84965
Memory Partition 5: 
Cache L2_bank_010:
MSHR contents

Cache L2_bank_011:
MSHR contents

In Dram Latency Queue (total = 0): 
DRAM[5]: 16 bks, busW=4 BL=8 CL=12, tRRD=2 tCCD=6, tRCD=12 tRAS=28 tRP=12 tRC=40
n_cmd=87263 n_nop=49087 n_act=8170 n_pre=8154 n_req=10927 n_rd=21848 n_write=4 bw_util=0.5008
n_activity=79614 dram_eff=0.5489
bk0: 1344a 66062i bk1: 1344a 64966i bk2: 1344a 65041i bk3: 1344a 64746i bk4: 1364a 63688i bk5: 1368a 62955i bk6: 1408a 62921i bk7: 1408a 62968i bk8: 1408a 65363i bk9: 1408a 64212i bk10: 1368a 64996i bk11: 1364a 64732i bk12: 1344a 64294i bk13: 1344a 64473i bk14: 1344a 63914i bk15: 1344a 64126i 
dram_util_bins: 0 0 0 0 0 0 0 0 0 0
dram_eff_bins: 0 0 0 0 0 0 0 0 0 0
mrqq: max=16 avg=1.4751

========= L2 cache stats =========
L2_cache_bank[0]: Access = 5507, Miss = 5465, Miss_rate = 0.992, Pending_hits = 9, Reservation_fails = 2537
L2_cache_bank[1]: Access = 5524, Miss = 5462, Miss_rate = 0.989, Pending_hits = 1, Reservation_fails = 1738
L2_cache_bank[2]: Access = 5492, Miss = 5465, Miss_rate = 0.995, Pending_hits = 9, Reservation_fails = 2665
L2_cache_bank[3]: Access = 5524, Miss = 5462, Miss_rate = 0.989, Pending_hits = 0, Reservation_fails = 1663
L2_cache_bank[4]: Access = 5492, Miss = 5464, Miss_rate = 0.995, Pending_hits = 6, Reservation_fails = 2007
L2_cache_bank[5]: Access = 5462, Miss = 5462, Miss_rate = 1.000, Pending_hits = 0, Reservation_fails = 2177
L2_cache_bank[6]: Access = 5477, Miss = 5463, Miss_rate = 0.997, Pending_hits = 2, Reservation_fails = 1884
L2_cache_bank[7]: Access = 5462, Miss = 5462, Miss_rate = 1.000, Pending_hits = 0, Reservation_fails = 1521
L2_cache_bank[8]: Access = 5524, Miss = 5463, Miss_rate = 0.989, Pending_hits = 1, Reservation_fails = 2499
L2_cache_bank[9]: Access = 5462, Miss = 5462, Miss_rate = 1.000, Pending_hits = 0, Reservation_fails = 1494
L2_cache_bank[10]: Access = 5524, Miss = 5462, Miss_rate = 0.989, Pending_hits = 0, Reservation_fails = 1951
L2_cache_bank[11]: Access = 5462, Miss = 5462, Miss_rate = 1.000, Pending_hits = 0, Reservation_fails = 1397
L2_total_cache_accesses = 65912
L2_total_cache_misses = 65554
L2_total_cache_miss_rate = 0.9946
L2_total_cache_pending_hits = 28
L2_total_cache_reservation_fails = 23533
L2_total_cache_breakdown:
	L2_cache_stats_breakdown[GLOBAL_ACC_R][MISS] = 65536
	L2_cache_stats_breakdown[GLOBAL_ACC_R][RESERVATION_FAIL] = 22600
	L2_cache_stats_breakdown[CONST_ACC_R][HIT] = 11
	L2_cache_stats_breakdown[CONST_ACC_R][HIT_RESERVED] = 3
	L2_cache_stats_breakdown[CONST_ACC_R][MISS] = 1
	L2_cache_stats_breakdown[CONST_ACC_R][RESERVATION_FAIL] = 101
	L2_cache_stats_breakdown[GLOBAL_ACC_W][HIT] = 245
	L2_cache_stats_breakdown[GLOBAL_ACC_W][HIT_RESERVED] = 2
	L2_cache_stats_breakdown[GLOBAL_ACC_W][MISS] = 9
	L2_cache_stats_breakdown[INST_ACC_R][HIT] = 74
	L2_cache_stats_breakdown[INST_ACC_R][HIT_RESERVED] = 23
	L2_cache_stats_breakdown[INST_ACC_R][MISS] = 8
	L2_cache_stats_breakdown[INST_ACC_R][RESERVATION_FAIL] = 832
L2_cache_data_port_util = 0.001
L2_cache_fill_port_util = 0.331

icnt_total_pkts_mem_to_simt=328506
icnt_total_pkts_simt_to_mem=66168
LD_mem_lat_dist  0 0 0 0 0 0 0 0 0 0 0 0 0 0 0 0 0 0 0 0 0 0 0 0 0 0 0
ST_mem_lat_dist  0 0 0 0 0 0 0 0 0 0 0 0 0 0 0 0 0 0 0 0 0 0 0 0 0 0 0
----------------------------Interconnect-DETAILS--------------------------------
Class 0:
Packet latency average = 17.5092
	minimum = 6
	maximum = 155
Network latency average = 14.3346
	minimum = 6
	maximum = 155
Slowest packet = 835
Flit latency average = 14.0358
	minimum = 6
	maximum = 155
Slowest flit = 1537
Fragmentation average = 0
	minimum = 0
	maximum = 0
Injected packet rate average = 0.0738533
	minimum = 0.0623213 (at node 0)
	maximum = 0.083559 (at node 16)
Accepted packet rate average = 0.0738533
	minimum = 0.0623213 (at node 0)
	maximum = 0.083559 (at node 16)
Injected flit rate average = 0.221113
	minimum = 0.0625633 (at node 0)
	maximum = 0.416055 (at node 15)
Accepted flit rate average= 0.221113
	minimum = 0.0826211 (at node 20)
	maximum = 0.349362 (at node 1)
Injected packet length average = 2.99395
Accepted packet length average = 2.99395
Total in-flight flits = 0 (0 measured)
====== Overall Traffic Statistics ======
====== Traffic class 0 ======
Packet latency average = 17.5092 (1 samples)
	minimum = 6 (1 samples)
	maximum = 155 (1 samples)
Network latency average = 14.3346 (1 samples)
	minimum = 6 (1 samples)
	maximum = 155 (1 samples)
Flit latency average = 14.0358 (1 samples)
	minimum = 6 (1 samples)
	maximum = 155 (1 samples)
Fragmentation average = 0 (1 samples)
	minimum = 0 (1 samples)
	maximum = 0 (1 samples)
Injected packet rate average = 0.0738533 (1 samples)
	minimum = 0.0623213 (1 samples)
	maximum = 0.083559 (1 samples)
Accepted packet rate average = 0.0738533 (1 samples)
	minimum = 0.0623213 (1 samples)
	maximum = 0.083559 (1 samples)
Injected flit rate average = 0.221113 (1 samples)
	minimum = 0.0625633 (1 samples)
	maximum = 0.416055 (1 samples)
Accepted flit rate average = 0.221113 (1 samples)
	minimum = 0.0826211 (1 samples)
	maximum = 0.349362 (1 samples)
Injected packet size average = 2.99395 (1 samples)
Accepted packet size average = 2.99395 (1 samples)
Hops average = 1 (1 samples)
----------------------------END-of-Interconnect-DETAILS-------------------------


gpgpu_simulation_time = 0 days, 0 hrs, 0 min, 57 sec (57 sec)
gpgpu_simulation_rate = 428800 (inst/sec)
gpgpu_simulation_rate = 1159 (cycle/sec)
GPGPU-Sim: synchronize waiting for inactive GPU simulation
GPGPU-Sim API: Stream Manager State
GPGPU-Sim: detected inactive GPU simulation thread
GPU time: 55436.160156 msecs.
Reading back GPU result...
Checking GPU results...
..running CPU scalar product calculation
...comparing the results
L1 error: 3.070748E-08
TEST PASSED
Shutting down...
