

        *** GPGPU-Sim Simulator Version 3.2.2  [build 0] ***


GPGPU-Sim PTX: simulation mode 0 (can change with PTX_SIM_MODE_FUNC environment variable:
               1=functional simulation only, 0=detailed performance simulator)
GPGPU-Sim: Configuration options:

-network_mode                           1 # Interconnection network mode
-inter_config_file   config_fermi_islip.icnt # Interconnection network config file
-gpgpu_ptx_use_cuobjdump                    1 # Use cuobjdump to extract ptx and sass from binaries
-gpgpu_experimental_lib_support                    0 # Try to extract code from cuda libraries [Broken because of unknown cudaGetExportTable]
-gpgpu_ptx_convert_to_ptxplus                    0 # Convert SASS (native ISA) to ptxplus and run ptxplus
-gpgpu_ptx_force_max_capability                   20 # Force maximum compute capability
-gpgpu_ptx_inst_debug_to_file                    0 # Dump executed instructions' debug information to file
-gpgpu_ptx_inst_debug_file       inst_debug.txt # Executed instructions' debug output file
-gpgpu_ptx_inst_debug_thread_uid                    1 # Thread UID for executed instructions' debug output
-gpgpu_simd_model                       1 # 1 = post-dominator
-gpgpu_shader_core_pipeline              1536:32 # shader core pipeline config, i.e., {<nthread>:<warpsize>}
-gpgpu_tex_cache:l1  4:128:24,L:R:m:N:L,F:128:4,128:2 # per-shader L1 texture cache  (READ-ONLY) config  {<nsets>:<bsize>:<assoc>,<rep>:<wr>:<alloc>:<wr_alloc>,<mshr>:<N>:<merge>,<mq>:<rf>}
-gpgpu_const_cache:l1 64:64:2,L:R:f:N:L,A:2:32,4 # per-shader L1 constant memory cache  (READ-ONLY) config  {<nsets>:<bsize>:<assoc>,<rep>:<wr>:<alloc>:<wr_alloc>,<mshr>:<N>:<merge>,<mq>} 
-gpgpu_cache:il1     4:128:4,L:R:f:N:L,A:2:32,4 # shader L1 instruction cache config  {<nsets>:<bsize>:<assoc>,<rep>:<wr>:<alloc>:<wr_alloc>,<mshr>:<N>:<merge>,<mq>} 
-gpgpu_cache:dl1     16:128:4,L:L:m:N:L,A:32:8,8 # per-shader L1 data cache config  {<nsets>:<bsize>:<assoc>,<rep>:<wr>:<alloc>:<wr_alloc>,<mshr>:<N>:<merge>,<mq> | none}
-gpgpu_cache:dl1PrefL1                 none # per-shader L1 data cache config  {<nsets>:<bsize>:<assoc>,<rep>:<wr>:<alloc>:<wr_alloc>,<mshr>:<N>:<merge>,<mq> | none}
-gpgpu_cache:dl1PreShared                 none # per-shader L1 data cache config  {<nsets>:<bsize>:<assoc>,<rep>:<wr>:<alloc>:<wr_alloc>,<mshr>:<N>:<merge>,<mq> | none}
-gmem_skip_L1D                          0 # global memory access skip L1D cache (implements -Xptxas -dlcm=cg, default=no skip)
-gpgpu_perfect_mem                      0 # enable perfect memory mode (no cache miss)
-n_regfile_gating_group                    4 # group of lanes that should be read/written together)
-gpgpu_clock_gated_reg_file                    0 # enable clock gated reg file for power calculations
-gpgpu_clock_gated_lanes                    0 # enable clock gated lanes for power calculations
-gpgpu_shader_registers                32768 # Number of registers per shader core. Limits number of concurrent CTAs. (default 8192)
-gpgpu_shader_cta                       8 # Maximum number of concurrent CTAs in shader (default 8)
-gpgpu_num_cta_barriers                   16 # Maximum number of named barriers per CTA (default 16)
-gpgpu_n_clusters                      15 # number of processing clusters
-gpgpu_n_cores_per_cluster                    1 # number of simd cores per cluster
-gpgpu_n_cluster_ejection_buffer_size                    8 # number of packets in ejection buffer
-gpgpu_n_ldst_response_buffer_size                    2 # number of response packets in ld/st unit ejection buffer
-gpgpu_shmem_size                   16384 # Size of shared memory per shader core (default 16kB)
-gpgpu_shmem_size                   49152 # Size of shared memory per shader core (default 16kB)
-gpgpu_shmem_size_PrefL1                16384 # Size of shared memory per shader core (default 16kB)
-gpgpu_shmem_size_PrefShared                16384 # Size of shared memory per shader core (default 16kB)
-gpgpu_shmem_num_banks                   32 # Number of banks in the shared memory in each shader core (default 16)
-gpgpu_shmem_limited_broadcast                    0 # Limit shared memory to do one broadcast per cycle (default on)
-gpgpu_shmem_warp_parts                    1 # Number of portions a warp is divided into for shared memory bank conflict check 
-gpgpu_warpdistro_shader                   -1 # Specify which shader core to collect the warp size distribution from
-gpgpu_warp_issue_shader                    0 # Specify which shader core to collect the warp issue distribution from
-gpgpu_local_mem_map                    1 # Mapping from local memory space address to simulated GPU physical address space (default = enabled)
-gpgpu_num_reg_banks                   16 # Number of register banks (default = 8)
-gpgpu_reg_bank_use_warp_id                    0 # Use warp ID in mapping registers to banks (default = off)
-gpgpu_operand_collector_num_units_sp                    6 # number of collector units (default = 4)
-gpgpu_operand_collector_num_units_sfu                    8 # number of collector units (default = 4)
-gpgpu_operand_collector_num_units_mem                    2 # number of collector units (default = 2)
-gpgpu_operand_collector_num_units_gen                    0 # number of collector units (default = 0)
-gpgpu_operand_collector_num_in_ports_sp                    2 # number of collector unit in ports (default = 1)
-gpgpu_operand_collector_num_in_ports_sfu                    1 # number of collector unit in ports (default = 1)
-gpgpu_operand_collector_num_in_ports_mem                    1 # number of collector unit in ports (default = 1)
-gpgpu_operand_collector_num_in_ports_gen                    0 # number of collector unit in ports (default = 0)
-gpgpu_operand_collector_num_out_ports_sp                    2 # number of collector unit in ports (default = 1)
-gpgpu_operand_collector_num_out_ports_sfu                    1 # number of collector unit in ports (default = 1)
-gpgpu_operand_collector_num_out_ports_mem                    1 # number of collector unit in ports (default = 1)
-gpgpu_operand_collector_num_out_ports_gen                    0 # number of collector unit in ports (default = 0)
-gpgpu_coalesce_arch                   13 # Coalescing arch (default = 13, anything else is off for now)
-gpgpu_num_sched_per_core                    2 # Number of warp schedulers per core
-gpgpu_max_insn_issue_per_warp                    1 # Max number of instructions that can be issued per warp in one cycle by scheduler
-gpgpu_simt_core_sim_order                    1 # Select the simulation order of cores in a cluster (0=Fix, 1=Round-Robin)
-gpgpu_pipeline_widths        2,1,1,2,1,1,2 # Pipeline widths ID_OC_SP,ID_OC_SFU,ID_OC_MEM,OC_EX_SP,OC_EX_SFU,OC_EX_MEM,EX_WB
-gpgpu_num_sp_units                     2 # Number of SP units (default=1)
-gpgpu_num_sfu_units                    1 # Number of SF units (default=1)
-gpgpu_num_mem_units                    1 # Number if ldst units (default=1) WARNING: not hooked up to anything
-gpgpu_scheduler                      gto # Scheduler configuration: < lrr | gto | two_level_active > If two_level_active:<num_active_warps>:<inner_prioritization>:<outer_prioritization>For complete list of prioritization values see shader.h enum scheduler_prioritization_typeDefault: gto
-gpgpu_dram_scheduler                    1 # 0 = fifo, 1 = FR-FCFS (defaul)
-gpgpu_dram_partition_queues              8:8:8:8 # i2$:$2d:d2$:$2i
-l2_ideal                               0 # Use a ideal L2 cache that always hit
-gpgpu_cache:dl2     64:128:8,L:B:m:W:L,A:32:4,4:0,32 # unified banked L2 data cache config  {<nsets>:<bsize>:<assoc>,<rep>:<wr>:<alloc>:<wr_alloc>,<mshr>:<N>:<merge>,<mq>}
-gpgpu_cache:dl2_texture_only                    0 # L2 cache used for texture only
-gpgpu_n_mem                            6 # number of memory modules (e.g. memory controllers) in gpu
-gpgpu_n_sub_partition_per_mchannel                    2 # number of memory subpartition in each memory module
-gpgpu_n_mem_per_ctrlr                    2 # number of memory chips per memory controller
-gpgpu_memlatency_stat                   14 # track and display latency statistics 0x2 enables MC, 0x4 enables queue logs
-gpgpu_frfcfs_dram_sched_queue_size                   16 # 0 = unlimited (default); # entries per chip
-gpgpu_dram_return_queue_size                  116 # 0 = unlimited (default); # entries per chip
-gpgpu_dram_buswidth                    4 # default = 4 bytes (8 bytes per cycle at DDR)
-gpgpu_dram_burst_length                    8 # Burst length of each DRAM request (default = 4 data bus cycle)
-dram_data_command_freq_ratio                    4 # Frequency ratio between DRAM data bus and command bus (default = 2 times, i.e. DDR)
-gpgpu_dram_timing_opt nbk=16:CCD=2:RRD=6:RCD=12:RAS=28:RP=12:RC=40: CL=12:WL=4:CDLR=5:WR=12:nbkgrp=4:CCDL=3:RTPL=2 # DRAM timing parameters = {nbk:tCCD:tRRD:tRCD:tRAS:tRP:tRC:CL:WL:tCDLR:tWR:nbkgrp:tCCDL:tRTPL}
-rop_latency                          120 # ROP queue latency (default 85)
-dram_latency                         100 # DRAM latency (default 30)
-gpgpu_mem_addr_mapping dramid@8;00000000.00000000.00000000.00000000.0000RRRR.RRRRRRRR.BBBCCCCB.CCSSSSSS # mapping memory address to dram model {dramid@<start bit>;<memory address map>}
-gpgpu_mem_addr_test                    0 # run sweep test to check address mapping for aliased address
-gpgpu_mem_address_mask                    1 # 0 = old addressing mask, 1 = new addressing mask, 2 = new add. mask + flipped bank sel and chip sel bits
-gpuwattch_xml_file  gpuwattch_gtx480.xml # GPUWattch XML file
-power_simulation_enabled                    0 # Turn on power simulator (1=On, 0=Off)
-power_per_cycle_dump                    0 # Dump detailed power output each cycle
-power_trace_enabled                    0 # produce a file for the power trace (1=On, 0=Off)
-power_trace_zlevel                     6 # Compression level of the power trace output log (0=no comp, 9=highest)
-steady_power_levels_enabled                    0 # produce a file for the steady power levels (1=On, 0=Off)
-steady_state_definition                  8:4 # allowed deviation:number of samples
-gpgpu_max_cycle                        0 # terminates gpu simulation early (0 = no limit)
-gpgpu_max_insn                         0 # terminates gpu simulation early (0 = no limit)
-gpgpu_max_cta                          0 # terminates gpu simulation early (0 = no limit)
-gpgpu_runtime_stat                   500 # display runtime statistics such as dram utilization {<freq>:<flag>}
-liveness_message_freq                    1 # Minimum number of seconds between simulation liveness messages (0 = always print)
-gpgpu_flush_l1_cache                    0 # Flush L1 cache at the end of each kernel call
-gpgpu_flush_l2_cache                    0 # Flush L2 cache at the end of each kernel call
-gpgpu_deadlock_detect                    1 # Stop the simulation at deadlock (1=on (default), 0=off)
-gpgpu_ptx_instruction_classification                    0 # if enabled will classify ptx instruction types per kernel (Max 255 kernels now)
-gpgpu_ptx_sim_mode                     0 # Select between Performance (default) or Functional simulation (1)
-gpgpu_clock_domains 700.0:700.0:700.0:924.0 # Clock Domain Frequencies in MhZ {<Core Clock>:<ICNT Clock>:<L2 Clock>:<DRAM Clock>}
-gpgpu_max_concurrent_kernel                    8 # maximum kernels that can run concurrently on GPU
-gpgpu_cflog_interval                    0 # Interval between each snapshot in control flow logger
-visualizer_enabled                     0 # Turn on visualizer output (1=On, 0=Off)
-visualizer_outputfile                 NULL # Specifies the output log file for visualizer
-visualizer_zlevel                      6 # Compression level of the visualizer output log (0=no comp, 9=highest)
-trace_enabled                          0 # Turn on traces
-trace_components                    none # comma seperated list of traces to enable. Complete list found in trace_streams.tup. Default none
-trace_sampling_core                    0 # The core which is printed using CORE_DPRINTF. Default 0
-trace_sampling_memory_partition                   -1 # The memory partition which is printed using MEMPART_DPRINTF. Default -1 (i.e. all)
-enable_ptx_file_line_stats                    1 # Turn on PTX source line statistic profiling. (1 = On)
-ptx_line_stats_filename gpgpu_inst_stats.txt # Output file for PTX source line statistics.
-save_embedded_ptx                      0 # saves ptx files embedded in binary as <n>.ptx
-keep                                   0 # keep intermediate files created by GPGPU-Sim when interfacing with external programs
-gpgpu_ptx_save_converted_ptxplus                    0 # Saved converted ptxplus to a file
-ptx_opcode_latency_int         4,13,4,5,145 # Opcode latencies for integers <ADD,MAX,MUL,MAD,DIV>Default 1,1,19,25,145
-ptx_opcode_latency_fp          4,13,4,5,39 # Opcode latencies for single precision floating points <ADD,MAX,MUL,MAD,DIV>Default 1,1,1,1,30
-ptx_opcode_latency_dp         8,19,8,8,330 # Opcode latencies for double precision floating points <ADD,MAX,MUL,MAD,DIV>Default 8,8,8,8,335
-ptx_opcode_initiation_int            1,2,2,1,8 # Opcode initiation intervals for integers <ADD,MAX,MUL,MAD,DIV>Default 1,1,4,4,32
-ptx_opcode_initiation_fp            1,2,1,1,4 # Opcode initiation intervals for single precision floating points <ADD,MAX,MUL,MAD,DIV>Default 1,1,1,1,5
-ptx_opcode_initiation_dp         8,16,8,8,130 # Opcode initiation intervals for double precision floating points <ADD,MAX,MUL,MAD,DIV>Default 8,8,8,8,130
DRAM Timing Options:
nbk                                    16 # number of banks
CCD                                     2 # column to column delay
RRD                                     6 # minimal delay between activation of rows in different banks
RCD                                    12 # row to column delay
RAS                                    28 # time needed to activate row
RP                                     12 # time needed to precharge (deactivate) row
RC                                     40 # row cycle time
CDLR                                    5 # switching from write to read (changes tWTR)
WR                                     12 # last data-in to row precharge
CL                                     12 # CAS latency
WL                                      4 # Write latency
nbkgrp                                  4 # number of bank groups
CCDL                                    3 # column to column delay between accesses to different bank groups
RTPL                                    2 # read to precharge delay between accesses to different bank groups
Total number of memory sub partition = 12
addr_dec_mask[CHIP]  = 0000000000000000 	high:64 low:0
addr_dec_mask[BK]    = 000000000000e100 	high:16 low:8
addr_dec_mask[ROW]   = 000000000fff0000 	high:28 low:16
addr_dec_mask[COL]   = 0000000000001eff 	high:13 low:0
addr_dec_mask[BURST] = 000000000000003f 	high:6 low:0
sub_partition_id_mask = 0000000000000100
GPGPU-Sim uArch: clock freqs: 700000000.000000:700000000.000000:700000000.000000:924000000.000000
GPGPU-Sim uArch: clock periods: 0.00000000142857142857:0.00000000142857142857:0.00000000142857142857:0.00000000108225108225
*** Initializing Memory Statistics ***
GPGPU-Sim uArch: interconnect node map (shaderID+MemID to icntID)
GPGPU-Sim uArch: Memory nodes ID start from index: 15
GPGPU-Sim uArch:    0   1   2   3   4
GPGPU-Sim uArch:    5   6   7   8   9
GPGPU-Sim uArch:   10  11  12  13  14
GPGPU-Sim uArch:   15  16  17  18  19
GPGPU-Sim uArch:   20  21  22  23  24
GPGPU-Sim uArch:   25  26
GPGPU-Sim uArch: interconnect node reverse map (icntID to shaderID+MemID)
GPGPU-Sim uArch: Memory nodes start from ID: 15
GPGPU-Sim uArch:    0   1   2   3   4
GPGPU-Sim uArch:    5   6   7   8   9
GPGPU-Sim uArch:   10  11  12  13  14
GPGPU-Sim uArch:   15  16  17  18  19
GPGPU-Sim uArch:   20  21  22  23  24
GPGPU-Sim uArch:   25  26
316bcbff5f8f022bb22b20bb4721e93e  /sciclone/data20/adwait/applications/benchmarks/CUDA/RAY/gpgpu_ptx_sim__RAY
GPGPU-Sim uArch: performance model initialization complete.
GPGPU-Sim PTX: __cudaRegisterFatBinary, fat_cubin_handle = 1, filename=rayTracing.cu
self exe links to: /sciclone/data20/adwait/applications/benchmarks/CUDA/RAY/gpgpu_ptx_sim__RAY
Running md5sum using "md5sum /sciclone/data20/adwait/applications/benchmarks/CUDA/RAY/gpgpu_ptx_sim__RAY "
Parsing file _cuobjdump_complete_output_oUH7Yv
######### cuobjdump parser ########
## Adding new section ELF
Adding arch: sm_20
Adding identifier: rayTracing.cu
## Adding new section PTX
Adding ptx filename: _cuobjdump_1.ptx
Adding arch: sm_20
Adding identifier: rayTracing.cu
Done parsing!!!
GPGPU-Sim PTX: __cudaRegisterFunction _Z6renderPjP4Nodejjff : hostFun 0x0x40ce13, fat_cubin_handle = 1
GPGPU-Sim PTX: allocating stack frame region for .param "__cudaretf__Zmi6float3S_" from 0x0 to 0xc
GPGPU-Sim PTX: allocating stack frame region for .param "__cudaparmf1__Zmi6float3S_" from 0xc to 0x18
GPGPU-Sim PTX: allocating stack frame region for .param "__cudaparmf2__Zmi6float3S_" from 0x18 to 0x24
GPGPU-Sim PTX: allocating stack frame region for .param "__cudaretf__Z9normalize6float3" from 0x0 to 0xc
GPGPU-Sim PTX: allocating stack frame region for .param "__cudaparmf1__Z9normalize6float3" from 0xc to 0x18
GPGPU-Sim PTX: allocating stack frame region for .param "__cudaretf__Z18intersectionSphere5Rayon6float3f" from 0x0 to 0x4
GPGPU-Sim PTX: allocating stack frame region for .param "__cudaparmf1__Z18intersectionSphere5Rayon6float3f" from 0x4 to 0x1c
GPGPU-Sim PTX: allocating stack frame region for .param "__cudaparmf2__Z18intersectionSphere5Rayon6float3f" from 0x1c to 0x28
GPGPU-Sim PTX: allocating stack frame region for .param "__cudaparmf3__Z18intersectionSphere5Rayon6float3f" from 0x28 to 0x2c
GPGPU-Sim PTX: allocating stack frame region for .param "__cudaretf__Z16intersectionPlan5Rayon6float3S0_" from 0x0 to 0x4
GPGPU-Sim PTX: allocating stack frame region for .param "__cudaparmf1__Z16intersectionPlan5Rayon6float3S0_" from 0x4 to 0x1c
GPGPU-Sim PTX: allocating stack frame region for .param "__cudaparmf2__Z16intersectionPlan5Rayon6float3S0_" from 0x1c to 0x28
GPGPU-Sim PTX: allocating stack frame region for .param "__cudaparmf3__Z16intersectionPlan5Rayon6float3S0_" from 0x28 to 0x34
GPGPU-Sim PTX: allocating stack frame region for .param "__cudaretf__Z10getNormale6float3S_" from 0x0 to 0xc
GPGPU-Sim PTX: allocating stack frame region for .param "__cudaparmf1__Z10getNormale6float3S_" from 0xc to 0x18
GPGPU-Sim PTX: allocating stack frame region for .param "__cudaparmf2__Z10getNormale6float3S_" from 0x18 to 0x24
GPGPU-Sim PTX: allocating stack frame region for .param "__cudaretf__Z11getNormaleP6float3" from 0x0 to 0xc
GPGPU-Sim PTX: allocating stack frame region for .param "__cudaparmf1__Z11getNormaleP6float3" from 0xc to 0x18
GPGPU-Sim PTX: allocating stack frame region for .param "__cudaretf__Z14rgbaFloatToInt6float4" from 0x0 to 0x4
GPGPU-Sim PTX: allocating stack frame region for .param "__cudaparmf1__Z14rgbaFloatToInt6float4" from 0x4 to 0x14
GPGPU-Sim PTX: allocating stack frame region for .param "__cudaretf__Z12notShadowRayP4Node6float3S1_f" from 0x0 to 0x4
GPGPU-Sim PTX: allocating stack frame region for .param "__cudaparmf1__Z12notShadowRayP4Node6float3S1_f" from 0x4 to 0xc
GPGPU-Sim PTX: allocating stack frame region for .param "__cudaparmf2__Z12notShadowRayP4Node6float3S1_f" from 0xc to 0x18
GPGPU-Sim PTX: allocating stack frame region for .param "__cudaparmf3__Z12notShadowRayP4Node6float3S1_f" from 0x18 to 0x24
GPGPU-Sim PTX: allocating stack frame region for .param "__cudaparmf4__Z12notShadowRayP4Node6float3S1_f" from 0x24 to 0x28
GPGPU-Sim PTX: allocating stack frame region for .param "__cudaretf__Z15float2int_pow20f" from 0x0 to 0x4
GPGPU-Sim PTX: allocating stack frame region for .param "__cudaparmf1__Z15float2int_pow20f" from 0x4 to 0x8
GPGPU-Sim PTX: allocating stack frame region for .param "__cudaretf__Z15float2int_pow50f" from 0x0 to 0x4
GPGPU-Sim PTX: allocating stack frame region for .param "__cudaparmf1__Z15float2int_pow50f" from 0x4 to 0x8
GPGPU-Sim PTX: allocating stack frame region for .param "__cudaparmf1__ZN4dim3C1Ejjj" from 0x0 to 0x8
GPGPU-Sim PTX: allocating stack frame region for .param "__cudaparmf2__ZN4dim3C1Ejjj" from 0x8 to 0xc
GPGPU-Sim PTX: allocating stack frame region for .param "__cudaparmf3__ZN4dim3C1Ejjj" from 0xc to 0x10
GPGPU-Sim PTX: allocating stack frame region for .param "__cudaparmf4__ZN4dim3C1Ejjj" from 0x10 to 0x14
GPGPU-Sim PTX: instruction assembly for function '_Zmi6float3S_'...   done.
GPGPU-Sim PTX: finding reconvergence points for '_Zmi6float3S_'...
GPGPU-Sim PTX: Finding dominators for '_Zmi6float3S_'...
GPGPU-Sim PTX: Finding immediate dominators for '_Zmi6float3S_'...
GPGPU-Sim PTX: Finding postdominators for '_Zmi6float3S_'...
GPGPU-Sim PTX: Finding immediate postdominators for '_Zmi6float3S_'...
GPGPU-Sim PTX: pre-decoding instructions for '_Zmi6float3S_'...
GPGPU-Sim PTX: reconvergence points for _Zmi6float3S_...
GPGPU-Sim PTX: ... end of reconvergence points for _Zmi6float3S_
GPGPU-Sim PTX: ... done pre-decoding instructions for '_Zmi6float3S_'.
GPGPU-Sim PTX: instruction assembly for function '_Z9normalize6float3'...   done.
GPGPU-Sim PTX: finding reconvergence points for '_Z9normalize6float3'...
GPGPU-Sim PTX: Finding dominators for '_Z9normalize6float3'...
GPGPU-Sim PTX: Finding immediate dominators for '_Z9normalize6float3'...
GPGPU-Sim PTX: Finding postdominators for '_Z9normalize6float3'...
GPGPU-Sim PTX: Finding immediate postdominators for '_Z9normalize6float3'...
GPGPU-Sim PTX: pre-decoding instructions for '_Z9normalize6float3'...
GPGPU-Sim PTX: reconvergence points for _Z9normalize6float3...
GPGPU-Sim PTX: ... end of reconvergence points for _Z9normalize6float3
GPGPU-Sim PTX: ... done pre-decoding instructions for '_Z9normalize6float3'.
GPGPU-Sim PTX: instruction assembly for function '_Z18intersectionSphere5Rayon6float3f'...   done.
GPGPU-Sim PTX: finding reconvergence points for '_Z18intersectionSphere5Rayon6float3f'...
GPGPU-Sim PTX: Finding dominators for '_Z18intersectionSphere5Rayon6float3f'...
GPGPU-Sim PTX: Finding immediate dominators for '_Z18intersectionSphere5Rayon6float3f'...
GPGPU-Sim PTX: Finding postdominators for '_Z18intersectionSphere5Rayon6float3f'...
GPGPU-Sim PTX: Finding immediate postdominators for '_Z18intersectionSphere5Rayon6float3f'...
GPGPU-Sim PTX: pre-decoding instructions for '_Z18intersectionSphere5Rayon6float3f'...
GPGPU-Sim PTX: reconvergence points for _Z18intersectionSphere5Rayon6float3f...
GPGPU-Sim PTX:  1 (potential) branch divergence @  PC=0x250 (_1.ptx:173) @%p2 bra $Lt_2_3074;
GPGPU-Sim PTX:    immediate post dominator      @  PC=0x2c0 (_1.ptx:193) mov.f32 %f39, %f32;
GPGPU-Sim PTX:  2 (potential) branch divergence @  PC=0x260 (_1.ptx:175) bra.uni $Lt_2_2818;
GPGPU-Sim PTX:    immediate post dominator      @  PC=0x2c0 (_1.ptx:193) mov.f32 %f39, %f32;
GPGPU-Sim PTX:  3 (potential) branch divergence @  PC=0x280 (_1.ptx:180) @!%p3 bra $Lt_2_3586;
GPGPU-Sim PTX:    immediate post dominator      @  PC=0x2c0 (_1.ptx:193) mov.f32 %f39, %f32;
GPGPU-Sim PTX:  4 (potential) branch divergence @  PC=0x290 (_1.ptx:182) bra.uni $Lt_2_3330;
GPGPU-Sim PTX:    immediate post dominator      @  PC=0x2c0 (_1.ptx:193) mov.f32 %f39, %f32;
GPGPU-Sim PTX: ... end of reconvergence points for _Z18intersectionSphere5Rayon6float3f
GPGPU-Sim PTX: ... done pre-decoding instructions for '_Z18intersectionSphere5Rayon6float3f'.
GPGPU-Sim PTX: instruction assembly for function '_Z16intersectionPlan5Rayon6float3S0_'...   done.
GPGPU-Sim PTX: finding reconvergence points for '_Z16intersectionPlan5Rayon6float3S0_'...
GPGPU-Sim PTX: Finding dominators for '_Z16intersectionPlan5Rayon6float3S0_'...
GPGPU-Sim PTX: Finding immediate dominators for '_Z16intersectionPlan5Rayon6float3S0_'...
GPGPU-Sim PTX: Finding postdominators for '_Z16intersectionPlan5Rayon6float3S0_'...
GPGPU-Sim PTX: Finding immediate postdominators for '_Z16intersectionPlan5Rayon6float3S0_'...
GPGPU-Sim PTX: pre-decoding instructions for '_Z16intersectionPlan5Rayon6float3S0_'...
GPGPU-Sim PTX: reconvergence points for _Z16intersectionPlan5Rayon6float3S0_...
GPGPU-Sim PTX:  1 (potential) branch divergence @  PC=0x320 (_1.ptx:214) @!%p1 bra $Lt_3_2050;
GPGPU-Sim PTX:    immediate post dominator      @  PC=0x368 (_1.ptx:227) mov.f32 %f14, %f9;
GPGPU-Sim PTX:  2 (potential) branch divergence @  PC=0x330 (_1.ptx:216) bra.uni $Lt_3_1794;
GPGPU-Sim PTX:    immediate post dominator      @  PC=0x368 (_1.ptx:227) mov.f32 %f14, %f9;
GPGPU-Sim PTX: ... end of reconvergence points for _Z16intersectionPlan5Rayon6float3S0_
GPGPU-Sim PTX: ... done pre-decoding instructions for '_Z16intersectionPlan5Rayon6float3S0_'.
GPGPU-Sim PTX: instruction assembly for function '_Z10getNormale6float3S_'...   done.
GPGPU-Sim PTX: finding reconvergence points for '_Z10getNormale6float3S_'...
GPGPU-Sim PTX: Finding dominators for '_Z10getNormale6float3S_'...
GPGPU-Sim PTX: Finding immediate dominators for '_Z10getNormale6float3S_'...
GPGPU-Sim PTX: Finding postdominators for '_Z10getNormale6float3S_'...
GPGPU-Sim PTX: Finding immediate postdominators for '_Z10getNormale6float3S_'...
GPGPU-Sim PTX: pre-decoding instructions for '_Z10getNormale6float3S_'...
GPGPU-Sim PTX: reconvergence points for _Z10getNormale6float3S_...
GPGPU-Sim PTX: ... end of reconvergence points for _Z10getNormale6float3S_
GPGPU-Sim PTX: ... done pre-decoding instructions for '_Z10getNormale6float3S_'.
GPGPU-Sim PTX: instruction assembly for function '_Z11getNormaleP6float3'...   done.
GPGPU-Sim PTX: finding reconvergence points for '_Z11getNormaleP6float3'...
GPGPU-Sim PTX: Finding dominators for '_Z11getNormaleP6float3'...
GPGPU-Sim PTX: Finding immediate dominators for '_Z11getNormaleP6float3'...
GPGPU-Sim PTX: Finding postdominators for '_Z11getNormaleP6float3'...
GPGPU-Sim PTX: Finding immediate postdominators for '_Z11getNormaleP6float3'...
GPGPU-Sim PTX: pre-decoding instructions for '_Z11getNormaleP6float3'...
GPGPU-Sim PTX: reconvergence points for _Z11getNormaleP6float3...
GPGPU-Sim PTX: ... end of reconvergence points for _Z11getNormaleP6float3
GPGPU-Sim PTX: ... done pre-decoding instructions for '_Z11getNormaleP6float3'.
GPGPU-Sim PTX: instruction assembly for function '_Z14rgbaFloatToInt6float4'...   done.
GPGPU-Sim PTX: finding reconvergence points for '_Z14rgbaFloatToInt6float4'...
GPGPU-Sim PTX: Finding dominators for '_Z14rgbaFloatToInt6float4'...
GPGPU-Sim PTX: Finding immediate dominators for '_Z14rgbaFloatToInt6float4'...
GPGPU-Sim PTX: Finding postdominators for '_Z14rgbaFloatToInt6float4'...
GPGPU-Sim PTX: Finding immediate postdominators for '_Z14rgbaFloatToInt6float4'...
GPGPU-Sim PTX: pre-decoding instructions for '_Z14rgbaFloatToInt6float4'...
GPGPU-Sim PTX: reconvergence points for _Z14rgbaFloatToInt6float4...
GPGPU-Sim PTX: ... end of reconvergence points for _Z14rgbaFloatToInt6float4
GPGPU-Sim PTX: ... done pre-decoding instructions for '_Z14rgbaFloatToInt6float4'.
GPGPU-Sim PTX: allocating global region for "cnode" from 0x100 to 0x1a0 (global memory space)
GPGPU-Sim PTX: instruction assembly for function '_Z12notShadowRayP4Node6float3S1_f'...   done.
GPGPU-Sim PTX: finding reconvergence points for '_Z12notShadowRayP4Node6float3S1_f'...
GPGPU-Sim PTX: Finding dominators for '_Z12notShadowRayP4Node6float3S1_f'...
GPGPU-Sim PTX: Finding immediate dominators for '_Z12notShadowRayP4Node6float3S1_f'...
GPGPU-Sim PTX: Finding postdominators for '_Z12notShadowRayP4Node6float3S1_f'...
GPGPU-Sim PTX: Finding immediate postdominators for '_Z12notShadowRayP4Node6float3S1_f'...
GPGPU-Sim PTX: pre-decoding instructions for '_Z12notShadowRayP4Node6float3S1_f'...
GPGPU-Sim PTX: reconvergence points for _Z12notShadowRayP4Node6float3S1_f...
GPGPU-Sim PTX:  1 (potential) branch divergence @  PC=0x638 (_1.ptx:364) @%p1 bra $Lt_7_8450;
GPGPU-Sim PTX:    immediate post dominator      @  PC=0x828 (_1.ptx:441) mov.f32 %f58, 0f00000000;    // 0
GPGPU-Sim PTX:  2 (potential) branch divergence @  PC=0x658 (_1.ptx:369) @!%p2 bra $Lt_7_8962;
GPGPU-Sim PTX:    immediate post dominator      @  PC=0x6b8 (_1.ptx:385) mov.f32 %f28, %f20;
GPGPU-Sim PTX:  3 (potential) branch divergence @  PC=0x668 (_1.ptx:371) bra.uni $Lt_7_8706;
GPGPU-Sim PTX:    immediate post dominator      @  PC=0x6b8 (_1.ptx:385) mov.f32 %f28, %f20;
GPGPU-Sim PTX:  4 (potential) branch divergence @  PC=0x6c0 (_1.ptx:386) bra.uni $Lt_7_8194;
GPGPU-Sim PTX:    immediate post dominator      @  PC=0x828 (_1.ptx:441) mov.f32 %f58, 0f00000000;    // 0
GPGPU-Sim PTX:  5 (potential) branch divergence @  PC=0x7b0 (_1.ptx:418) @%p5 bra $Lt_7_9474;
GPGPU-Sim PTX:    immediate post dominator      @  PC=0x820 (_1.ptx:438) mov.f32 %f28, %f51;
GPGPU-Sim PTX:  6 (potential) branch divergence @  PC=0x7c0 (_1.ptx:420) bra.uni $Lt_7_9730;
GPGPU-Sim PTX:    immediate post dominator      @  PC=0x820 (_1.ptx:438) mov.f32 %f28, %f51;
GPGPU-Sim PTX:  7 (potential) branch divergence @  PC=0x7e0 (_1.ptx:425) @!%p6 bra $Lt_7_9986;
GPGPU-Sim PTX:    immediate post dominator      @  PC=0x820 (_1.ptx:438) mov.f32 %f28, %f51;
GPGPU-Sim PTX:  8 (potential) branch divergence @  PC=0x7f0 (_1.ptx:427) bra.uni $Lt_7_9730;
GPGPU-Sim PTX:    immediate post dominator      @  PC=0x820 (_1.ptx:438) mov.f32 %f28, %f51;
GPGPU-Sim PTX:  9 (potential) branch divergence @  PC=0x838 (_1.ptx:443) @!%p7 bra $Lt_7_10242;
GPGPU-Sim PTX:    immediate post dominator      @  PC=0x8e8 (_1.ptx:468) add.s32 %r1, %r1, 1;
GPGPU-Sim PTX: 10 (potential) branch divergence @  PC=0x8d8 (_1.ptx:463) @!%p8 bra $Lt_7_10242;
GPGPU-Sim PTX:    immediate post dominator      @  PC=0x8e8 (_1.ptx:468) add.s32 %r1, %r1, 1;
GPGPU-Sim PTX: 11 (potential) branch divergence @  PC=0x908 (_1.ptx:472) @%p9 bra $Lt_7_10754;
GPGPU-Sim PTX:    immediate post dominator      @  PC=0x960 (_1.ptx:486) selp.s32 %r10, 1, 0, %p11;
GPGPU-Sim PTX: 12 (potential) branch divergence @  PC=0x930 (_1.ptx:477) @%p10 bra $L_7_7170;
GPGPU-Sim PTX:    immediate post dominator      @  PC=0x960 (_1.ptx:486) selp.s32 %r10, 1, 0, %p11;
GPGPU-Sim PTX: 13 (potential) branch divergence @  PC=0x938 (_1.ptx:478) bra.uni $L_7_7938;
GPGPU-Sim PTX:    immediate post dominator      @  PC=0x960 (_1.ptx:486) selp.s32 %r10, 1, 0, %p11;
GPGPU-Sim PTX: ... end of reconvergence points for _Z12notShadowRayP4Node6float3S1_f
GPGPU-Sim PTX: ... done pre-decoding instructions for '_Z12notShadowRayP4Node6float3S1_f'.
GPGPU-Sim PTX: instruction assembly for function '_Z15float2int_pow20f'...   done.
GPGPU-Sim PTX: finding reconvergence points for '_Z15float2int_pow20f'...
GPGPU-Sim PTX: Finding dominators for '_Z15float2int_pow20f'...
GPGPU-Sim PTX: Finding immediate dominators for '_Z15float2int_pow20f'...
GPGPU-Sim PTX: Finding postdominators for '_Z15float2int_pow20f'...
GPGPU-Sim PTX: Finding immediate postdominators for '_Z15float2int_pow20f'...
GPGPU-Sim PTX: pre-decoding instructions for '_Z15float2int_pow20f'...
GPGPU-Sim PTX: reconvergence points for _Z15float2int_pow20f...
GPGPU-Sim PTX: ... end of reconvergence points for _Z15float2int_pow20f
GPGPU-Sim PTX: ... done pre-decoding instructions for '_Z15float2int_pow20f'.
GPGPU-Sim PTX: instruction assembly for function '_Z15float2int_pow50f'...   done.
GPGPU-Sim PTX: finding reconvergence points for '_Z15float2int_pow50f'...
GPGPU-Sim PTX: Finding dominators for '_Z15float2int_pow50f'...
GPGPU-Sim PTX: Finding immediate dominators for '_Z15float2int_pow50f'...
GPGPU-Sim PTX: Finding postdominators for '_Z15float2int_pow50f'...
GPGPU-Sim PTX: Finding immediate postdominators for '_Z15float2int_pow50f'...
GPGPU-Sim PTX: pre-decoding instructions for '_Z15float2int_pow50f'...
GPGPU-Sim PTX: reconvergence points for _Z15float2int_pow50f...
GPGPU-Sim PTX: ... end of reconvergence points for _Z15float2int_pow50f
GPGPU-Sim PTX: ... done pre-decoding instructions for '_Z15float2int_pow50f'.
GPGPU-Sim PTX: allocating constant region for "MView" from 0x200 to 0x230 (global memory space) 1
GPGPU-Sim PTX: allocating stack frame region for .local "__cuda___cuda_local_var_35463_9_non_const_pile_32240" from 0x0 to 0x50
GPGPU-Sim PTX: instruction assembly for function '_Z6renderPjP4Nodejjff'...   done.
GPGPU-Sim PTX: finding reconvergence points for '_Z6renderPjP4Nodejjff'...
GPGPU-Sim PTX: Finding dominators for '_Z6renderPjP4Nodejjff'...
GPGPU-Sim PTX: Finding immediate dominators for '_Z6renderPjP4Nodejjff'...
GPGPU-Sim PTX: Finding postdominators for '_Z6renderPjP4Nodejjff'...
GPGPU-Sim PTX: Finding immediate postdominators for '_Z6renderPjP4Nodejjff'...
GPGPU-Sim PTX: pre-decoding instructions for '_Z6renderPjP4Nodejjff'...
GPGPU-Sim PTX: reconvergence points for _Z6renderPjP4Nodejjff...
GPGPU-Sim PTX:  1 (potential) branch divergence @  PC=0xdb0 (_1.ptx:663) @%p1 bra $Lt_10_44034;
GPGPU-Sim PTX:    immediate post dominator      @  PC=0x2370 (_1.ptx:1495) exit;
GPGPU-Sim PTX:  2 (potential) branch divergence @  PC=0x1028 (_1.ptx:751) @%p2 bra $Lt_10_45570;
GPGPU-Sim PTX:    immediate post dominator      @  PC=0x11b8 (_1.ptx:815) mov.f32 %f108, 0f00000000;   // 0
GPGPU-Sim PTX:  3 (potential) branch divergence @  PC=0x1048 (_1.ptx:756) @!%p3 bra $Lt_10_46082;
GPGPU-Sim PTX:    immediate post dominator      @  PC=0x1090 (_1.ptx:769) mov.f32 %f87, %f82;
GPGPU-Sim PTX:  4 (potential) branch divergence @  PC=0x1058 (_1.ptx:758) bra.uni $Lt_10_45826;
GPGPU-Sim PTX:    immediate post dominator      @  PC=0x1090 (_1.ptx:769) mov.f32 %f87, %f82;
GPGPU-Sim PTX:  5 (potential) branch divergence @  PC=0x1098 (_1.ptx:770) bra.uni $Lt_10_45314;
GPGPU-Sim PTX:    immediate post dominator      @  PC=0x11b8 (_1.ptx:815) mov.f32 %f108, 0f00000000;   // 0
GPGPU-Sim PTX:  6 (potential) branch divergence @  PC=0x1140 (_1.ptx:793) @%p6 bra $Lt_10_46594;
GPGPU-Sim PTX:    immediate post dominator      @  PC=0x11b0 (_1.ptx:813) mov.f32 %f87, %f101;
GPGPU-Sim PTX:  7 (potential) branch divergence @  PC=0x1150 (_1.ptx:795) bra.uni $Lt_10_46850;
GPGPU-Sim PTX:    immediate post dominator      @  PC=0x11b0 (_1.ptx:813) mov.f32 %f87, %f101;
GPGPU-Sim PTX:  8 (potential) branch divergence @  PC=0x1170 (_1.ptx:800) @!%p7 bra $Lt_10_47106;
GPGPU-Sim PTX:    immediate post dominator      @  PC=0x11b0 (_1.ptx:813) mov.f32 %f87, %f101;
GPGPU-Sim PTX:  9 (potential) branch divergence @  PC=0x1180 (_1.ptx:802) bra.uni $Lt_10_46850;
GPGPU-Sim PTX:    immediate post dominator      @  PC=0x11b0 (_1.ptx:813) mov.f32 %f87, %f101;
GPGPU-Sim PTX: 10 (potential) branch divergence @  PC=0x11f8 (_1.ptx:823) @%p8 bra $Lt_10_47362;
GPGPU-Sim PTX:    immediate post dominator      @  PC=0x1210 (_1.ptx:829) add.s32 %r25, %r25, 1;
GPGPU-Sim PTX: 11 (potential) branch divergence @  PC=0x1230 (_1.ptx:833) @%p9 bra $Lt_10_45058;
GPGPU-Sim PTX:    immediate post dominator      @  PC=0x1238 (_1.ptx:834) mov.f32 %f109, 0f00000000;   // 0
GPGPU-Sim PTX: 12 (potential) branch divergence @  PC=0x1280 (_1.ptx:843) @%p10 bra $Lt_10_48130;
GPGPU-Sim PTX:    immediate post dominator      @  PC=0x2140 (_1.ptx:1416) add.s32 %r23, %r23, 1;
GPGPU-Sim PTX: 13 (potential) branch divergence @  PC=0x1330 (_1.ptx:868) @%p11 bra $Lt_10_48898;
GPGPU-Sim PTX:    immediate post dominator      @  PC=0x13b8 (_1.ptx:888) sub.f32 %f136, %f21, %f119;
GPGPU-Sim PTX: 14 (potential) branch divergence @  PC=0x1350 (_1.ptx:873) bra.uni $Lt_10_48642;
GPGPU-Sim PTX:    immediate post dominator      @  PC=0x13b8 (_1.ptx:888) sub.f32 %f136, %f21, %f119;
GPGPU-Sim PTX: 15 (potential) branch divergence @  PC=0x1430 (_1.ptx:903) @!%p12 bra $Lt_10_49410;
GPGPU-Sim PTX:    immediate post dominator      @  PC=0x1470 (_1.ptx:915) mov.f32 %f153, 0f3d4ccccd;   // 0.05
GPGPU-Sim PTX: 16 (potential) branch divergence @  PC=0x1450 (_1.ptx:908) bra.uni $Lt_10_49154;
GPGPU-Sim PTX:    immediate post dominator      @  PC=0x1470 (_1.ptx:915) mov.f32 %f153, 0f3d4ccccd;   // 0.05
GPGPU-Sim PTX: 17 (potential) branch divergence @  PC=0x1578 (_1.ptx:949) @!%p13 bra $Lt_10_58114;
GPGPU-Sim PTX:    immediate post dominator      @  PC=0x2080 (_1.ptx:1388) add.f32 %f399, %f126, %f126;
GPGPU-Sim PTX: 18 (potential) branch divergence @  PC=0x15c0 (_1.ptx:961) @%p14 bra $Lt_10_49922;
GPGPU-Sim PTX:    immediate post dominator      @  PC=0x17b0 (_1.ptx:1039) mov.f32 %f221, 0f00000000;   // 0
GPGPU-Sim PTX: 19 (potential) branch divergence @  PC=0x15e0 (_1.ptx:966) @!%p15 bra $Lt_10_50434;
GPGPU-Sim PTX:    immediate post dominator      @  PC=0x1638 (_1.ptx:982) mov.f32 %f190, %f183;
GPGPU-Sim PTX: 20 (potential) branch divergence @  PC=0x15f0 (_1.ptx:968) bra.uni $Lt_10_50178;
GPGPU-Sim PTX:    immediate post dominator      @  PC=0x1638 (_1.ptx:982) mov.f32 %f190, %f183;
GPGPU-Sim PTX: 21 (potential) branch divergence @  PC=0x1640 (_1.ptx:983) bra.uni $Lt_10_49666;
GPGPU-Sim PTX:    immediate post dominator      @  PC=0x17b0 (_1.ptx:1039) mov.f32 %f221, 0f00000000;   // 0
GPGPU-Sim PTX: 22 (potential) branch divergence @  PC=0x1738 (_1.ptx:1016) @%p18 bra $Lt_10_50946;
GPGPU-Sim PTX:    immediate post dominator      @  PC=0x17a8 (_1.ptx:1036) mov.f32 %f190, %f214;
GPGPU-Sim PTX: 23 (potential) branch divergence @  PC=0x1748 (_1.ptx:1018) bra.uni $Lt_10_51202;
GPGPU-Sim PTX:    immediate post dominator      @  PC=0x17a8 (_1.ptx:1036) mov.f32 %f190, %f214;
GPGPU-Sim PTX: 24 (potential) branch divergence @  PC=0x1768 (_1.ptx:1023) @!%p19 bra $Lt_10_51458;
GPGPU-Sim PTX:    immediate post dominator      @  PC=0x17a8 (_1.ptx:1036) mov.f32 %f190, %f214;
GPGPU-Sim PTX: 25 (potential) branch divergence @  PC=0x1778 (_1.ptx:1025) bra.uni $Lt_10_51202;
GPGPU-Sim PTX:    immediate post dominator      @  PC=0x17a8 (_1.ptx:1036) mov.f32 %f190, %f214;
GPGPU-Sim PTX: 26 (potential) branch divergence @  PC=0x17c0 (_1.ptx:1041) @!%p20 bra $Lt_10_58370;
GPGPU-Sim PTX:    immediate post dominator      @  PC=0x1828 (_1.ptx:1057) add.s32 %r50, %r50, 1;
GPGPU-Sim PTX: 27 (potential) branch divergence @  PC=0x1818 (_1.ptx:1052) @!%p21 bra $Lt_10_58370;
GPGPU-Sim PTX:    immediate post dominator      @  PC=0x1828 (_1.ptx:1057) add.s32 %r50, %r50, 1;
GPGPU-Sim PTX: 28 (potential) branch divergence @  PC=0x1848 (_1.ptx:1061) @%p22 bra $Lt_10_58882;
GPGPU-Sim PTX:    immediate post dominator      @  PC=0x1880 (_1.ptx:1071) @!%p23 bra $Lt_10_58114;
GPGPU-Sim PTX: 29 (potential) branch divergence @  PC=0x1860 (_1.ptx:1064) @%p23 bra $L_10_42498;
GPGPU-Sim PTX:    immediate post dominator      @  PC=0x1880 (_1.ptx:1071) @!%p23 bra $Lt_10_58114;
GPGPU-Sim PTX: 30 (potential) branch divergence @  PC=0x1868 (_1.ptx:1065) bra.uni $L_10_43266;
GPGPU-Sim PTX:    immediate post dominator      @  PC=0x1880 (_1.ptx:1071) @!%p23 bra $Lt_10_58114;
GPGPU-Sim PTX: 31 (potential) branch divergence @  PC=0x1880 (_1.ptx:1071) @!%p23 bra $Lt_10_58114;
GPGPU-Sim PTX:    immediate post dominator      @  PC=0x2080 (_1.ptx:1388) add.f32 %f399, %f126, %f126;
GPGPU-Sim PTX: 32 (potential) branch divergence @  PC=0x19c8 (_1.ptx:1115) @!%p24 bra $Lt_10_51714;
GPGPU-Sim PTX:    immediate post dominator      @  PC=0x2040 (_1.ptx:1375) mov.f32 %f394, 0f3f4ccccd;   // 0.8
GPGPU-Sim PTX: 33 (potential) branch divergence @  PC=0x19d8 (_1.ptx:1118) bra.uni $LDWendi___isnanf_192_1;
GPGPU-Sim PTX:    immediate post dominator      @  PC=0x2040 (_1.ptx:1375) mov.f32 %f394, 0f3f4ccccd;   // 0.8
GPGPU-Sim PTX: 34 (potential) branch divergence @  PC=0x19f8 (_1.ptx:1124) @!%p25 bra $Lt_10_7682;
GPGPU-Sim PTX:    immediate post dominator      @  PC=0x2040 (_1.ptx:1375) mov.f32 %f394, 0f3f4ccccd;   // 0.8
GPGPU-Sim PTX: 35 (potential) branch divergence @  PC=0x1a00 (_1.ptx:1125) bra.uni $Lt_10_7938;
GPGPU-Sim PTX:    immediate post dominator      @  PC=0x1a20 (_1.ptx:1133) mov.f32 %f272, 0f7f800000;   // ((1.0F)/(0.0F))
GPGPU-Sim PTX: 36 (potential) branch divergence @  PC=0x1a18 (_1.ptx:1130) bra.uni $LDWendi___isnanf_192_1;
GPGPU-Sim PTX:    immediate post dominator      @  PC=0x2040 (_1.ptx:1375) mov.f32 %f394, 0f3f4ccccd;   // 0.8
GPGPU-Sim PTX: 37 (potential) branch divergence @  PC=0x1a30 (_1.ptx:1135) @!%p26 bra $Lt_10_52226;
GPGPU-Sim PTX:    immediate post dominator      @  PC=0x2040 (_1.ptx:1375) mov.f32 %f394, 0f3f4ccccd;   // 0.8
GPGPU-Sim PTX: 38 (potential) branch divergence @  PC=0x1a40 (_1.ptx:1138) bra.uni $LDWendi___isnanf_192_1;
GPGPU-Sim PTX:    immediate post dominator      @  PC=0x2040 (_1.ptx:1375) mov.f32 %f394, 0f3f4ccccd;   // 0.8
GPGPU-Sim PTX: 39 (potential) branch divergence @  PC=0x1a58 (_1.ptx:1142) @!%p27 bra $Lt_10_52738;
GPGPU-Sim PTX:    immediate post dominator      @  PC=0x2040 (_1.ptx:1375) mov.f32 %f394, 0f3f4ccccd;   // 0.8
GPGPU-Sim PTX: 40 (potential) branch divergence @  PC=0x1ab8 (_1.ptx:1155) bra.uni $LDWendi___isnanf_192_1;
GPGPU-Sim PTX:    immediate post dominator      @  PC=0x2040 (_1.ptx:1375) mov.f32 %f394, 0f3f4ccccd;   // 0.8
GPGPU-Sim PTX: 41 (potential) branch divergence @  PC=0x1ad0 (_1.ptx:1159) @!%p29 bra $Lt_10_53250;
GPGPU-Sim PTX:    immediate post dominator      @  PC=0x2040 (_1.ptx:1375) mov.f32 %f394, 0f3f4ccccd;   // 0.8
GPGPU-Sim PTX: 42 (potential) branch divergence @  PC=0x1b20 (_1.ptx:1170) @!%p30 bra $Lt_10_53762;
GPGPU-Sim PTX:    immediate post dominator      @  PC=0x1b40 (_1.ptx:1177) mov.f32 %f268, %f284;
GPGPU-Sim PTX: 43 (potential) branch divergence @  PC=0x1b48 (_1.ptx:1178) bra.uni $LDWendi___isnanf_192_1;
GPGPU-Sim PTX:    immediate post dominator      @  PC=0x2040 (_1.ptx:1375) mov.f32 %f394, 0f3f4ccccd;   // 0.8
GPGPU-Sim PTX: 44 (potential) branch divergence @  PC=0x1b60 (_1.ptx:1183) @!%p31 bra $Lt_10_59394;
GPGPU-Sim PTX:    immediate post dominator      @  PC=0x2040 (_1.ptx:1375) mov.f32 %f394, 0f3f4ccccd;   // 0.8
GPGPU-Sim PTX: 45 (potential) branch divergence @  PC=0x1b88 (_1.ptx:1188) @!%p32 bra $Lt_10_59394;
GPGPU-Sim PTX:    immediate post dominator      @  PC=0x2040 (_1.ptx:1375) mov.f32 %f394, 0f3f4ccccd;   // 0.8
GPGPU-Sim PTX: 46 (potential) branch divergence @  PC=0x1ba0 (_1.ptx:1192) bra.uni $LDWendi___isnanf_192_1;
GPGPU-Sim PTX:    immediate post dominator      @  PC=0x2040 (_1.ptx:1375) mov.f32 %f394, 0f3f4ccccd;   // 0.8
GPGPU-Sim PTX: 47 (potential) branch divergence @  PC=0x1bd8 (_1.ptx:1202) @%p33 bra $Lt_10_54530;
GPGPU-Sim PTX:    immediate post dominator      @  PC=0x1c20 (_1.ptx:1216) sub.s32 %r64, %r64, 127;
GPGPU-Sim PTX: 48 (potential) branch divergence @  PC=0x1c10 (_1.ptx:1211) bra.uni $Lt_10_54274;
GPGPU-Sim PTX:    immediate post dominator      @  PC=0x1c20 (_1.ptx:1216) sub.s32 %r64, %r64, 127;
GPGPU-Sim PTX: 49 (potential) branch divergence @  PC=0x1c58 (_1.ptx:1224) @!%p34 bra $Lt_10_54786;
GPGPU-Sim PTX:    immediate post dominator      @  PC=0x1c78 (_1.ptx:1232) mov.f32 %f302, 0fbf800000;   // -1
GPGPU-Sim PTX: 50 (potential) branch divergence @  PC=0x1eb0 (_1.ptx:1312) @%p35 bra $Lt_10_55298;
GPGPU-Sim PTX:    immediate post dominator      @  PC=0x1ed8 (_1.ptx:1321) mov.f32 %f367, %f365;
GPGPU-Sim PTX: 51 (potential) branch divergence @  PC=0x1f98 (_1.ptx:1346) @!%p38 bra $Lt_10_55810;
GPGPU-Sim PTX:    immediate post dominator      @  PC=0x1fa8 (_1.ptx:1351) mov.f32 %f284, %f386;
GPGPU-Sim PTX: 52 (potential) branch divergence @  PC=0x2018 (_1.ptx:1365) @%p39 bra $Lt_10_56322;
GPGPU-Sim PTX:    immediate post dominator      @  PC=0x2038 (_1.ptx:1372) mov.f32 %f268, %f284;
GPGPU-Sim PTX: 53 (potential) branch divergence @  PC=0x2158 (_1.ptx:1419) @%p40 bra $L_10_42242;
GPGPU-Sim PTX:    immediate post dominator      @  PC=0x2170 (_1.ptx:1424) sub.s32 %r86, %r24, 1;
GPGPU-Sim PTX: 54 (potential) branch divergence @  PC=0x2168 (_1.ptx:1421) @%p41 bra $L_10_41474;
GPGPU-Sim PTX:    immediate post dominator      @  PC=0x2170 (_1.ptx:1424) sub.s32 %r86, %r24, 1;
GPGPU-Sim PTX: 55 (potential) branch divergence @  PC=0x2190 (_1.ptx:1428) @%p42 bra $Lt_10_56834;
GPGPU-Sim PTX:    immediate post dominator      @  PC=0x2288 (_1.ptx:1464) ld.global.u32 %r92, [%rd4+0];
GPGPU-Sim PTX: 56 (potential) branch divergence @  PC=0x2280 (_1.ptx:1461) @%p43 bra $Lt_10_57346;
GPGPU-Sim PTX:    immediate post dominator      @  PC=0x2288 (_1.ptx:1464) ld.global.u32 %r92, [%rd4+0];
GPGPU-Sim PTX: ... end of reconvergence points for _Z6renderPjP4Nodejjff
GPGPU-Sim PTX: ... done pre-decoding instructions for '_Z6renderPjP4Nodejjff'.
GPGPU-Sim PTX: instruction assembly for function '_ZN4dim3C1Ejjj'...   done.
GPGPU-Sim PTX: finding reconvergence points for '_ZN4dim3C1Ejjj'...
GPGPU-Sim PTX: Finding dominators for '_ZN4dim3C1Ejjj'...
GPGPU-Sim PTX: Finding immediate dominators for '_ZN4dim3C1Ejjj'...
GPGPU-Sim PTX: Finding postdominators for '_ZN4dim3C1Ejjj'...
GPGPU-Sim PTX: Finding immediate postdominators for '_ZN4dim3C1Ejjj'...
GPGPU-Sim PTX: pre-decoding instructions for '_ZN4dim3C1Ejjj'...
GPGPU-Sim PTX: reconvergence points for _ZN4dim3C1Ejjj...
GPGPU-Sim PTX: ... end of reconvergence points for _ZN4dim3C1Ejjj
GPGPU-Sim PTX: ... done pre-decoding instructions for '_ZN4dim3C1Ejjj'.
GPGPU-Sim PTX: finished parsing EMBEDDED .ptx file _1.ptx
Adding _cuobjdump_1.ptx with cubin handle 1
GPGPU-Sim PTX: extracting embedded .ptx to temporary file "_ptx_HT9zqu"
Running: cat _ptx_HT9zqu | sed 's/.version 1.5/.version 1.4/' | sed 's/, texmode_independent//' | sed 's/\(\.extern \.const\[1\] .b8 \w\+\)\[\]/\1\[1\]/' | sed 's/const\[.\]/const\[0\]/g' > _ptx2_2oCuxt
GPGPU-Sim PTX: generating ptxinfo using "$CUDA_INSTALL_PATH/bin/ptxas --gpu-name=sm_20 -v _ptx2_2oCuxt --output-file  /dev/null 2> _ptx_HT9zquinfo"
GPGPU-Sim PTX: Kernel '_Z6renderPjP4Nodejjff' : regs=45, lmem=4, smem=0, cmem=180
GPGPU-Sim PTX: removing ptxinfo using "rm -f _ptx_HT9zqu _ptx2_2oCuxt _ptx_HT9zquinfo"
GPGPU-Sim PTX: loading globals with explicit initializers... 
GPGPU-Sim PTX: finished loading globals (0 bytes total).
GPGPU-Sim PTX: loading constants with explicit initializers...  done.
GPGPU-Sim PTX: __cudaRegisterVar: hostVar = 0x62fda0; deviceAddress = MView; deviceName = MView
GPGPU-Sim PTX: __cudaRegisterVar: Registering const memory space of 48 bytes
GPGPU-Sim PTX registering constant MView (48 bytes) to name mapping
GPGPU-Sim PTX: __cudaRegisterVar: hostVar = 0x62fde0; deviceAddress = cnode; deviceName = cnode
GPGPU-Sim PTX: __cudaRegisterVar: Registering const memory space of 160 bytes
GPGPU-Sim PTX registering constant cnode (160 bytes) to name mapping
GPGPU-Sim PTX: cudaMemcpyToSymbol: symbol = 0x62fde0
GPGPU-Sim PTX: starting gpgpu_ptx_sim_memcpy_symbol with hostVar 0x0x62fde0
GPGPU-Sim PTX: gpgpu_ptx_sim_memcpy_symbol: Found PTX symbol w/ hostVar=0x62fde0
GPGPU-Sim PTX: gpgpu_ptx_sim_memcpy_symbol: copying const memory 160 bytes  to  symbol cnode+0 @0x100 ...
GPGPU-Sim PTX: cudaMemcpyToSymbol: symbol = 0x62fda0
GPGPU-Sim PTX: starting gpgpu_ptx_sim_memcpy_symbol with hostVar 0x0x62fda0
GPGPU-Sim PTX: gpgpu_ptx_sim_memcpy_symbol: Found PTX symbol w/ hostVar=0x62fda0
GPGPU-Sim PTX: gpgpu_ptx_sim_memcpy_symbol: copying const memory 48 bytes  to  symbol MView+0 @0x200 ...

GPGPU-Sim PTX: cudaLaunch for 0x0x40ce13 (mode=performance simulation) on stream 0
GPGPU-Sim PTX: pushing kernel '_Z6renderPjP4Nodejjff' to stream 0, gridDim= (16,32,1) blockDim = (16,8,1) 
kernel '_Z6renderPjP4Nodejjff' transfer to GPU hardware scheduler
GPGPU-Sim uArch: Shader 1 bind to kernel 1 '_Z6renderPjP4Nodejjff'
GPGPU-Sim uArch: CTA/core = 5, limited by: regs
GPGPU-Sim uArch: core:  1, cta: 0 initialized @(1,0)
GPGPU-Sim uArch: Shader 2 bind to kernel 1 '_Z6renderPjP4Nodejjff'
GPGPU-Sim uArch: core:  2, cta: 0 initialized @(1,0)
GPGPU-Sim uArch: Shader 3 bind to kernel 1 '_Z6renderPjP4Nodejjff'
GPGPU-Sim uArch: core:  3, cta: 0 initialized @(1,0)
GPGPU-Sim uArch: Shader 4 bind to kernel 1 '_Z6renderPjP4Nodejjff'
GPGPU-Sim uArch: core:  4, cta: 0 initialized @(1,0)
GPGPU-Sim uArch: Shader 5 bind to kernel 1 '_Z6renderPjP4Nodejjff'
GPGPU-Sim uArch: core:  5, cta: 0 initialized @(1,0)
GPGPU-Sim uArch: Shader 6 bind to kernel 1 '_Z6renderPjP4Nodejjff'
GPGPU-Sim uArch: core:  6, cta: 0 initialized @(1,0)
GPGPU-Sim uArch: Shader 7 bind to kernel 1 '_Z6renderPjP4Nodejjff'
GPGPU-Sim uArch: core:  7, cta: 0 initialized @(1,0)
GPGPU-Sim uArch: Shader 8 bind to kernel 1 '_Z6renderPjP4Nodejjff'
GPGPU-Sim uArch: core:  8, cta: 0 initialized @(1,0)
GPGPU-Sim uArch: Shader 9 bind to kernel 1 '_Z6renderPjP4Nodejjff'
GPGPU-Sim uArch: core:  9, cta: 0 initialized @(1,0)
GPGPU-Sim uArch: Shader 10 bind to kernel 1 '_Z6renderPjP4Nodejjff'
GPGPU-Sim uArch: core: 10, cta: 0 initialized @(1,0)
GPGPU-Sim uArch: Shader 11 bind to kernel 1 '_Z6renderPjP4Nodejjff'
GPGPU-Sim uArch: core: 11, cta: 0 initialized @(1,0)
GPGPU-Sim uArch: Shader 12 bind to kernel 1 '_Z6renderPjP4Nodejjff'
GPGPU-Sim uArch: core: 12, cta: 0 initialized @(1,0)
GPGPU-Sim uArch: Shader 13 bind to kernel 1 '_Z6renderPjP4Nodejjff'
GPGPU-Sim uArch: core: 13, cta: 0 initialized @(1,0)
GPGPU-Sim uArch: Shader 14 bind to kernel 1 '_Z6renderPjP4Nodejjff'
GPGPU-Sim uArch: core: 14, cta: 0 initialized @(1,0)
GPGPU-Sim uArch: Shader 0 bind to kernel 1 '_Z6renderPjP4Nodejjff'
GPGPU-Sim uArch: core:  0, cta: 0 initialized @(1,0)
GPGPU-Sim uArch: core:  1, cta: 1 initialized @(2,0)
GPGPU-Sim uArch: core:  2, cta: 1 initialized @(2,0)
GPGPU-Sim uArch: core:  3, cta: 1 initialized @(2,0)
GPGPU-Sim uArch: core:  4, cta: 1 initialized @(2,0)
GPGPU-Sim uArch: core:  5, cta: 1 initialized @(2,0)
GPGPU-Sim uArch: core:  6, cta: 1 initialized @(2,0)
GPGPU-Sim uArch: core:  7, cta: 1 initialized @(2,0)
GPGPU-Sim uArch: core:  8, cta: 1 initialized @(2,0)
GPGPU-Sim uArch: core:  9, cta: 1 initialized @(2,0)
GPGPU-Sim uArch: core: 10, cta: 1 initialized @(2,0)
GPGPU-Sim uArch: core: 11, cta: 1 initialized @(2,0)
GPGPU-Sim uArch: core: 12, cta: 1 initialized @(2,0)
GPGPU-Sim uArch: core: 13, cta: 1 initialized @(2,0)
GPGPU-Sim uArch: core: 14, cta: 1 initialized @(2,0)
GPGPU-Sim uArch: core:  0, cta: 1 initialized @(2,0)
GPGPU-Sim uArch: core:  1, cta: 2 initialized @(3,0)
GPGPU-Sim uArch: core:  2, cta: 2 initialized @(3,0)
GPGPU-Sim uArch: core:  3, cta: 2 initialized @(3,0)
GPGPU-Sim uArch: core:  4, cta: 2 initialized @(3,0)
GPGPU-Sim uArch: core:  5, cta: 2 initialized @(3,0)
GPGPU-Sim uArch: core:  6, cta: 2 initialized @(3,0)
GPGPU-Sim uArch: core:  7, cta: 2 initialized @(3,0)
GPGPU-Sim uArch: core:  8, cta: 2 initialized @(3,0)
GPGPU-Sim uArch: core:  9, cta: 2 initialized @(3,0)
GPGPU-Sim uArch: core: 10, cta: 2 initialized @(3,0)
GPGPU-Sim uArch: core: 11, cta: 2 initialized @(3,0)
GPGPU-Sim uArch: core: 12, cta: 2 initialized @(3,0)
GPGPU-Sim uArch: core: 13, cta: 2 initialized @(3,0)
GPGPU-Sim uArch: core: 14, cta: 2 initialized @(3,0)
GPGPU-Sim uArch: core:  0, cta: 2 initialized @(3,0)
GPGPU-Sim uArch: core:  1, cta: 3 initialized @(4,0)
GPGPU-Sim uArch: core:  2, cta: 3 initialized @(4,0)
GPGPU-Sim uArch: core:  3, cta: 3 initialized @(4,0)
GPGPU-Sim uArch: core:  4, cta: 3 initialized @(4,0)
GPGPU-Sim uArch: core:  5, cta: 3 initialized @(4,0)
GPGPU-Sim uArch: core:  6, cta: 3 initialized @(4,0)
GPGPU-Sim uArch: core:  7, cta: 3 initialized @(4,0)
GPGPU-Sim uArch: core:  8, cta: 3 initialized @(4,0)
GPGPU-Sim uArch: core:  9, cta: 3 initialized @(4,0)
GPGPU-Sim uArch: core: 10, cta: 3 initialized @(4,0)
GPGPU-Sim uArch: core: 11, cta: 3 initialized @(4,0)
GPGPU-Sim uArch: core: 12, cta: 3 initialized @(4,0)
GPGPU-Sim uArch: core: 13, cta: 3 initialized @(4,0)
GPGPU-Sim uArch: core: 14, cta: 3 initialized @(4,0)
GPGPU-Sim uArch: core:  0, cta: 3 initialized @(4,0)
GPGPU-Sim uArch: core:  1, cta: 4 initialized @(5,0)
GPGPU-Sim uArch: core:  2, cta: 4 initialized @(5,0)
GPGPU-Sim uArch: core:  3, cta: 4 initialized @(5,0)
GPGPU-Sim uArch: core:  4, cta: 4 initialized @(5,0)
GPGPU-Sim uArch: core:  5, cta: 4 initialized @(5,0)
GPGPU-Sim uArch: core:  6, cta: 4 initialized @(5,0)
GPGPU-Sim uArch: core:  7, cta: 4 initialized @(5,0)
GPGPU-Sim uArch: core:  8, cta: 4 initialized @(5,0)
GPGPU-Sim uArch: core:  9, cta: 4 initialized @(5,0)
GPGPU-Sim uArch: core: 10, cta: 4 initialized @(5,0)
GPGPU-Sim uArch: core: 11, cta: 4 initialized @(5,0)
GPGPU-Sim uArch: core: 12, cta: 4 initialized @(5,0)
GPGPU-Sim uArch: core: 13, cta: 4 initialized @(5,0)
GPGPU-Sim uArch: core: 14, cta: 4 initialized @(5,0)
GPGPU-Sim uArch: core:  0, cta: 4 initialized @(5,0)
GPGPU-Sim uArch: cycles simulated: 500  inst.: 36032 (ipc=72.1) sim_rate=18016 (inst/sec) elapsed = 0:0:00:02 / Sun Mar  6 05:31:02 2016
GPGPU-Sim PTX: 100000 instructions simulated : ctaid=(9,0,0) tid=(15,1,0)
GPGPU-Sim uArch: cycles simulated: 3000  inst.: 140608 (ipc=46.9) sim_rate=46869 (inst/sec) elapsed = 0:0:00:03 / Sun Mar  6 05:31:03 2016
GPGPU-Sim PTX: 200000 instructions simulated : ctaid=(2,0,0) tid=(15,5,0)
GPGPU-Sim PTX: 300000 instructions simulated : ctaid=(7,0,0) tid=(15,5,0)
GPGPU-Sim uArch: cycles simulated: 5000  inst.: 323424 (ipc=64.7) sim_rate=80856 (inst/sec) elapsed = 0:0:00:04 / Sun Mar  6 05:31:04 2016
GPGPU-Sim PTX: 400000 instructions simulated : ctaid=(4,0,0) tid=(15,1,0)
GPGPU-Sim PTX: 500000 instructions simulated : ctaid=(0,3,0) tid=(15,5,0)
GPGPU-Sim PTX: 600000 instructions simulated : ctaid=(1,1,0) tid=(15,5,0)
GPGPU-Sim uArch: cycles simulated: 6500  inst.: 606592 (ipc=93.3) sim_rate=121318 (inst/sec) elapsed = 0:0:00:05 / Sun Mar  6 05:31:05 2016
GPGPU-Sim PTX: 700000 instructions simulated : ctaid=(0,0,0) tid=(15,7,0)
GPGPU-Sim PTX: 800000 instructions simulated : ctaid=(2,3,0) tid=(15,7,0)
GPGPU-Sim PTX: 900000 instructions simulated : ctaid=(3,2,0) tid=(15,7,0)
GPGPU-Sim uArch: cycles simulated: 8000  inst.: 926304 (ipc=115.8) sim_rate=154384 (inst/sec) elapsed = 0:0:00:06 / Sun Mar  6 05:31:06 2016
GPGPU-Sim PTX: 1000000 instructions simulated : ctaid=(0,4,0) tid=(15,3,0)
GPGPU-Sim PTX: 1100000 instructions simulated : ctaid=(2,4,0) tid=(15,3,0)
GPGPU-Sim PTX: 1200000 instructions simulated : ctaid=(12,3,0) tid=(15,5,0)
GPGPU-Sim PTX: 1300000 instructions simulated : ctaid=(4,1,0) tid=(15,1,0)
GPGPU-Sim PTX: 1400000 instructions simulated : ctaid=(3,2,0) tid=(15,7,0)
GPGPU-Sim PTX: 1500000 instructions simulated : ctaid=(11,2,0) tid=(15,3,0)
GPGPU-Sim uArch: cycles simulated: 9500  inst.: 1552352 (ipc=163.4) sim_rate=221764 (inst/sec) elapsed = 0:0:00:07 / Sun Mar  6 05:31:07 2016
GPGPU-Sim PTX: 1600000 instructions simulated : ctaid=(10,1,0) tid=(15,7,0)
GPGPU-Sim PTX: 1700000 instructions simulated : ctaid=(6,2,0) tid=(15,5,0)
GPGPU-Sim PTX: 1800000 instructions simulated : ctaid=(0,0,0) tid=(15,7,0)
GPGPU-Sim PTX: 1900000 instructions simulated : ctaid=(7,0,0) tid=(15,5,0)
GPGPU-Sim PTX: 2000000 instructions simulated : ctaid=(6,2,0) tid=(15,1,0)
GPGPU-Sim PTX: 2100000 instructions simulated : ctaid=(15,1,0) tid=(15,7,0)
GPGPU-Sim PTX: 2200000 instructions simulated : ctaid=(11,1,0) tid=(15,5,0)
GPGPU-Sim PTX: 2300000 instructions simulated : ctaid=(12,1,0) tid=(15,1,0)
GPGPU-Sim uArch: cycles simulated: 10500  inst.: 2282176 (ipc=217.4) sim_rate=285272 (inst/sec) elapsed = 0:0:00:08 / Sun Mar  6 05:31:08 2016
GPGPU-Sim PTX: 2400000 instructions simulated : ctaid=(8,2,0) tid=(15,5,0)
GPGPU-Sim PTX: 2500000 instructions simulated : ctaid=(15,1,0) tid=(15,5,0)
GPGPU-Sim PTX: 2600000 instructions simulated : ctaid=(11,2,0) tid=(15,1,0)
GPGPU-Sim PTX: 2700000 instructions simulated : ctaid=(9,2,0) tid=(15,3,0)
GPGPU-Sim PTX: 2800000 instructions simulated : ctaid=(10,3,0) tid=(15,1,0)
GPGPU-Sim PTX: 2900000 instructions simulated : ctaid=(15,1,0) tid=(15,3,0)
GPGPU-Sim PTX: 3000000 instructions simulated : ctaid=(1,4,0) tid=(15,5,0)
GPGPU-Sim uArch: cycles simulated: 11500  inst.: 3000032 (ipc=260.9) sim_rate=333336 (inst/sec) elapsed = 0:0:00:09 / Sun Mar  6 05:31:09 2016
GPGPU-Sim PTX: 3100000 instructions simulated : ctaid=(14,1,0) tid=(15,5,0)
GPGPU-Sim PTX: 3200000 instructions simulated : ctaid=(10,3,0) tid=(15,7,0)
GPGPU-Sim PTX: 3300000 instructions simulated : ctaid=(5,3,0) tid=(15,3,0)
GPGPU-Sim PTX: 3400000 instructions simulated : ctaid=(7,4,0) tid=(15,5,0)
GPGPU-Sim PTX: 3500000 instructions simulated : ctaid=(10,2,0) tid=(15,3,0)
GPGPU-Sim uArch: cycles simulated: 12500  inst.: 3461312 (ipc=276.9) sim_rate=346131 (inst/sec) elapsed = 0:0:00:10 / Sun Mar  6 05:31:10 2016
GPGPU-Sim PTX: 3600000 instructions simulated : ctaid=(3,0,0) tid=(15,3,0)
GPGPU-Sim PTX: 3700000 instructions simulated : ctaid=(9,0,0) tid=(15,5,0)
GPGPU-Sim PTX: 3800000 instructions simulated : ctaid=(12,2,0) tid=(15,5,0)
GPGPU-Sim PTX: 3900000 instructions simulated : ctaid=(1,3,0) tid=(15,1,0)
GPGPU-Sim uArch: cycles simulated: 13500  inst.: 3826752 (ipc=283.5) sim_rate=347886 (inst/sec) elapsed = 0:0:00:11 / Sun Mar  6 05:31:11 2016
GPGPU-Sim PTX: 4000000 instructions simulated : ctaid=(0,2,0) tid=(15,1,0)
GPGPU-Sim PTX: 4100000 instructions simulated : ctaid=(15,1,0) tid=(15,3,0)
GPGPU-Sim PTX: 4200000 instructions simulated : ctaid=(11,1,0) tid=(15,3,0)
GPGPU-Sim PTX: 4300000 instructions simulated : ctaid=(14,1,0) tid=(15,1,0)
GPGPU-Sim PTX: 4400000 instructions simulated : ctaid=(0,2,0) tid=(15,5,0)
GPGPU-Sim PTX: 4500000 instructions simulated : ctaid=(15,3,0) tid=(15,3,0)
GPGPU-Sim PTX: 4600000 instructions simulated : ctaid=(13,0,0) tid=(8,0,0)
GPGPU-Sim uArch: cycles simulated: 15500  inst.: 4533133 (ipc=292.5) sim_rate=377761 (inst/sec) elapsed = 0:0:00:12 / Sun Mar  6 05:31:12 2016
GPGPU-Sim PTX: 4700000 instructions simulated : ctaid=(15,1,0) tid=(13,1,0)
GPGPU-Sim PTX: 4800000 instructions simulated : ctaid=(14,0,0) tid=(15,4,0)
GPGPU-Sim PTX: 4900000 instructions simulated : ctaid=(0,4,0) tid=(15,4,0)
GPGPU-Sim PTX: 5000000 instructions simulated : ctaid=(15,2,0) tid=(15,2,0)
GPGPU-Sim PTX: 5100000 instructions simulated : ctaid=(13,0,0) tid=(15,0,0)
GPGPU-Sim PTX: 5200000 instructions simulated : ctaid=(10,1,0) tid=(15,2,0)
GPGPU-Sim PTX: 5300000 instructions simulated : ctaid=(11,2,0) tid=(15,4,0)
GPGPU-Sim PTX: 5400000 instructions simulated : ctaid=(10,1,0) tid=(15,6,0)
GPGPU-Sim uArch: cycles simulated: 16500  inst.: 5315091 (ipc=322.1) sim_rate=408853 (inst/sec) elapsed = 0:0:00:13 / Sun Mar  6 05:31:13 2016
GPGPU-Sim PTX: 5500000 instructions simulated : ctaid=(1,0,0) tid=(12,5,0)
GPGPU-Sim PTX: 5600000 instructions simulated : ctaid=(11,0,0) tid=(1,7,0)
GPGPU-Sim PTX: 5700000 instructions simulated : ctaid=(10,4,0) tid=(1,4,0)
GPGPU-Sim PTX: 5800000 instructions simulated : ctaid=(6,3,0) tid=(15,6,0)
GPGPU-Sim PTX: 5900000 instructions simulated : ctaid=(9,0,0) tid=(12,0,0)
GPGPU-Sim PTX: 6000000 instructions simulated : ctaid=(1,4,0) tid=(15,2,0)
GPGPU-Sim uArch: cycles simulated: 17500  inst.: 5897092 (ipc=337.0) sim_rate=421220 (inst/sec) elapsed = 0:0:00:14 / Sun Mar  6 05:31:14 2016
GPGPU-Sim PTX: 6100000 instructions simulated : ctaid=(11,0,0) tid=(11,7,0)
GPGPU-Sim PTX: 6200000 instructions simulated : ctaid=(8,3,0) tid=(11,7,0)
GPGPU-Sim PTX: 6300000 instructions simulated : ctaid=(1,2,0) tid=(11,5,0)
GPGPU-Sim PTX: 6400000 instructions simulated : ctaid=(11,2,0) tid=(11,1,0)
GPGPU-Sim uArch: cycles simulated: 19000  inst.: 6237956 (ipc=328.3) sim_rate=415863 (inst/sec) elapsed = 0:0:00:15 / Sun Mar  6 05:31:15 2016
GPGPU-Sim PTX: 6500000 instructions simulated : ctaid=(13,3,0) tid=(11,6,0)
GPGPU-Sim PTX: 6600000 instructions simulated : ctaid=(2,3,0) tid=(11,1,0)
GPGPU-Sim PTX: 6700000 instructions simulated : ctaid=(10,1,0) tid=(11,5,0)
GPGPU-Sim PTX: 6800000 instructions simulated : ctaid=(1,3,0) tid=(11,7,0)
GPGPU-Sim PTX: 6900000 instructions simulated : ctaid=(15,0,0) tid=(11,7,0)
GPGPU-Sim uArch: cycles simulated: 20500  inst.: 6722212 (ipc=327.9) sim_rate=420138 (inst/sec) elapsed = 0:0:00:16 / Sun Mar  6 05:31:16 2016
GPGPU-Sim PTX: 7000000 instructions simulated : ctaid=(9,1,0) tid=(11,1,0)
GPGPU-Sim PTX: 7100000 instructions simulated : ctaid=(11,3,0) tid=(11,1,0)
GPGPU-Sim PTX: 7200000 instructions simulated : ctaid=(8,3,0) tid=(11,3,0)
GPGPU-Sim PTX: 7300000 instructions simulated : ctaid=(5,3,0) tid=(11,5,0)
GPGPU-Sim PTX: 7400000 instructions simulated : ctaid=(15,1,0) tid=(11,7,0)
GPGPU-Sim uArch: cycles simulated: 22000  inst.: 7232612 (ipc=328.8) sim_rate=425447 (inst/sec) elapsed = 0:0:00:17 / Sun Mar  6 05:31:17 2016
GPGPU-Sim PTX: 7500000 instructions simulated : ctaid=(12,2,0) tid=(11,7,0)
GPGPU-Sim PTX: 7600000 instructions simulated : ctaid=(10,0,0) tid=(11,3,0)
GPGPU-Sim PTX: 7700000 instructions simulated : ctaid=(3,0,0) tid=(11,7,0)
GPGPU-Sim PTX: 7800000 instructions simulated : ctaid=(12,0,0) tid=(11,7,0)
GPGPU-Sim PTX: 7900000 instructions simulated : ctaid=(12,2,0) tid=(11,3,0)
GPGPU-Sim uArch: cycles simulated: 23500  inst.: 7771940 (ipc=330.7) sim_rate=431774 (inst/sec) elapsed = 0:0:00:18 / Sun Mar  6 05:31:18 2016
GPGPU-Sim PTX: 8000000 instructions simulated : ctaid=(7,3,0) tid=(11,1,0)
GPGPU-Sim PTX: 8100000 instructions simulated : ctaid=(8,3,0) tid=(11,3,0)
GPGPU-Sim PTX: 8200000 instructions simulated : ctaid=(10,4,0) tid=(11,1,0)
GPGPU-Sim PTX: 8300000 instructions simulated : ctaid=(2,1,0) tid=(11,5,0)
GPGPU-Sim PTX: 8400000 instructions simulated : ctaid=(2,1,0) tid=(11,7,0)
GPGPU-Sim PTX: 8500000 instructions simulated : ctaid=(0,3,0) tid=(11,1,0)
GPGPU-Sim PTX: 8600000 instructions simulated : ctaid=(4,1,0) tid=(0,1,0)
GPGPU-Sim PTX: 8700000 instructions simulated : ctaid=(3,0,0) tid=(5,4,0)
GPGPU-Sim uArch: cycles simulated: 25000  inst.: 8527838 (ipc=341.1) sim_rate=448833 (inst/sec) elapsed = 0:0:00:19 / Sun Mar  6 05:31:19 2016
GPGPU-Sim PTX: 8800000 instructions simulated : ctaid=(7,2,0) tid=(1,0,0)
GPGPU-Sim PTX: 8900000 instructions simulated : ctaid=(5,0,0) tid=(11,3,0)
GPGPU-Sim PTX: 9000000 instructions simulated : ctaid=(8,0,0) tid=(11,1,0)
GPGPU-Sim PTX: 9100000 instructions simulated : ctaid=(8,3,0) tid=(1,2,0)
GPGPU-Sim uArch: cycles simulated: 25500  inst.: 8928324 (ipc=350.1) sim_rate=446416 (inst/sec) elapsed = 0:0:00:20 / Sun Mar  6 05:31:20 2016
GPGPU-Sim PTX: 9200000 instructions simulated : ctaid=(3,2,0) tid=(3,7,0)
GPGPU-Sim PTX: 9300000 instructions simulated : ctaid=(14,1,0) tid=(1,0,0)
GPGPU-Sim PTX: 9400000 instructions simulated : ctaid=(14,0,0) tid=(11,1,0)
GPGPU-Sim PTX: 9500000 instructions simulated : ctaid=(15,1,0) tid=(10,1,0)
GPGPU-Sim PTX: 9600000 instructions simulated : ctaid=(5,1,0) tid=(3,7,0)
GPGPU-Sim PTX: 9700000 instructions simulated : ctaid=(14,0,0) tid=(10,1,0)
GPGPU-Sim PTX: 9800000 instructions simulated : ctaid=(3,0,0) tid=(9,4,0)
GPGPU-Sim PTX: 9900000 instructions simulated : ctaid=(13,3,0) tid=(15,3,0)
GPGPU-Sim uArch: cycles simulated: 26500  inst.: 9670663 (ipc=364.9) sim_rate=460507 (inst/sec) elapsed = 0:0:00:21 / Sun Mar  6 05:31:21 2016
GPGPU-Sim PTX: 10000000 instructions simulated : ctaid=(15,3,0) tid=(14,7,0)
GPGPU-Sim PTX: 10100000 instructions simulated : ctaid=(2,3,0) tid=(7,0,0)
GPGPU-Sim PTX: 10200000 instructions simulated : ctaid=(3,2,0) tid=(0,3,0)
GPGPU-Sim uArch: cycles simulated: 27500  inst.: 9935704 (ipc=361.3) sim_rate=451622 (inst/sec) elapsed = 0:0:00:22 / Sun Mar  6 05:31:22 2016
GPGPU-Sim PTX: 10300000 instructions simulated : ctaid=(9,2,0) tid=(5,5,0)
GPGPU-Sim PTX: 10400000 instructions simulated : ctaid=(0,1,0) tid=(9,5,0)
GPGPU-Sim uArch: Shader 6 finished CTA #2 (28216,0), 4 CTAs running
GPGPU-Sim uArch: core:  6, cta: 2 initialized @(28217,0)
GPGPU-Sim uArch: Shader 1 finished CTA #0 (28234,0), 4 CTAs running
GPGPU-Sim uArch: core:  1, cta: 0 initialized @(28235,0)
GPGPU-Sim uArch: Shader 14 finished CTA #0 (28254,0), 4 CTAs running
GPGPU-Sim uArch: core: 14, cta: 0 initialized @(28255,0)
GPGPU-Sim uArch: Shader 4 finished CTA #1 (28264,0), 4 CTAs running
GPGPU-Sim uArch: core:  4, cta: 1 initialized @(28265,0)
GPGPU-Sim uArch: Shader 9 finished CTA #3 (28306,0), 4 CTAs running
GPGPU-Sim uArch: core:  9, cta: 3 initialized @(28307,0)
GPGPU-Sim uArch: Shader 0 finished CTA #0 (28320,0), 4 CTAs running
GPGPU-Sim uArch: core:  0, cta: 0 initialized @(28321,0)
GPGPU-Sim uArch: Shader 1 finished CTA #1 (28324,0), 4 CTAs running
GPGPU-Sim uArch: core:  1, cta: 1 initialized @(28325,0)
GPGPU-Sim uArch: Shader 1 finished CTA #2 (28350,0), 4 CTAs running
GPGPU-Sim uArch: core:  1, cta: 2 initialized @(28351,0)
GPGPU-Sim uArch: Shader 1 finished CTA #4 (28358,0), 4 CTAs running
GPGPU-Sim uArch: core:  1, cta: 4 initialized @(28359,0)
GPGPU-Sim uArch: Shader 4 finished CTA #2 (28360,0), 4 CTAs running
GPGPU-Sim uArch: core:  4, cta: 2 initialized @(28361,0)
GPGPU-Sim uArch: Shader 0 finished CTA #1 (28362,0), 4 CTAs running
GPGPU-Sim uArch: Shader 3 finished CTA #0 (28362,0), 4 CTAs running
GPGPU-Sim uArch: core:  0, cta: 1 initialized @(28363,0)
GPGPU-Sim uArch: core:  3, cta: 0 initialized @(28363,0)
GPGPU-Sim uArch: Shader 6 finished CTA #3 (28379,0), 4 CTAs running
GPGPU-Sim uArch: core:  6, cta: 3 initialized @(28380,0)
GPGPU-Sim PTX: 10500000 instructions simulated : ctaid=(6,3,0) tid=(13,1,0)
GPGPU-Sim uArch: Shader 2 finished CTA #1 (28390,0), 4 CTAs running
GPGPU-Sim uArch: Shader 5 finished CTA #2 (28390,0), 4 CTAs running
GPGPU-Sim uArch: core:  2, cta: 1 initialized @(28391,0)
GPGPU-Sim uArch: core:  5, cta: 2 initialized @(28391,0)
GPGPU-Sim uArch: Shader 0 finished CTA #2 (28404,0), 4 CTAs running
GPGPU-Sim uArch: core:  0, cta: 2 initialized @(28405,0)
GPGPU-Sim uArch: Shader 3 finished CTA #1 (28408,0), 4 CTAs running
GPGPU-Sim uArch: core:  3, cta: 1 initialized @(28409,0)
GPGPU-Sim uArch: Shader 1 finished CTA #3 (28412,0), 4 CTAs running
GPGPU-Sim uArch: core:  1, cta: 3 initialized @(28413,0)
GPGPU-Sim uArch: Shader 5 finished CTA #3 (28422,0), 4 CTAs running
GPGPU-Sim uArch: core:  5, cta: 3 initialized @(28423,0)
GPGPU-Sim uArch: Shader 6 finished CTA #4 (28425,0), 4 CTAs running
GPGPU-Sim uArch: core:  6, cta: 4 initialized @(28426,0)
GPGPU-Sim uArch: Shader 0 finished CTA #3 (28475,0), 4 CTAs running
GPGPU-Sim uArch: core:  0, cta: 3 initialized @(28476,0)
GPGPU-Sim uArch: Shader 8 finished CTA #2 (28484,0), 4 CTAs running
GPGPU-Sim uArch: core:  8, cta: 2 initialized @(28485,0)
GPGPU-Sim uArch: Shader 2 finished CTA #0 (28489,0), 4 CTAs running
GPGPU-Sim uArch: core:  2, cta: 0 initialized @(28490,0)
GPGPU-Sim uArch: cycles simulated: 28500  inst.: 10244911 (ipc=359.5) sim_rate=445430 (inst/sec) elapsed = 0:0:00:23 / Sun Mar  6 05:31:23 2016
GPGPU-Sim uArch: Shader 3 finished CTA #2 (28500,0), 4 CTAs running
GPGPU-Sim uArch: core:  3, cta: 2 initialized @(28501,0)
GPGPU-Sim uArch: Shader 8 finished CTA #4 (28518,0), 4 CTAs running
GPGPU-Sim uArch: core:  8, cta: 4 initialized @(28519,0)
GPGPU-Sim uArch: Shader 3 finished CTA #3 (28529,0), 4 CTAs running
GPGPU-Sim uArch: core:  3, cta: 3 initialized @(28530,0)
GPGPU-Sim uArch: Shader 4 finished CTA #3 (28531,0), 4 CTAs running
GPGPU-Sim uArch: core:  4, cta: 3 initialized @(28532,0)
GPGPU-Sim uArch: Shader 0 finished CTA #4 (28542,0), 4 CTAs running
GPGPU-Sim uArch: core:  0, cta: 4 initialized @(28543,0)
GPGPU-Sim uArch: Shader 2 finished CTA #2 (28551,0), 4 CTAs running
GPGPU-Sim uArch: core:  2, cta: 2 initialized @(28552,0)
GPGPU-Sim uArch: Shader 10 finished CTA #4 (28554,0), 4 CTAs running
GPGPU-Sim uArch: core: 10, cta: 4 initialized @(28555,0)
GPGPU-Sim uArch: Shader 7 finished CTA #3 (28571,0), 4 CTAs running
GPGPU-Sim uArch: core:  7, cta: 3 initialized @(28572,0)
GPGPU-Sim uArch: Shader 9 finished CTA #4 (28572,0), 4 CTAs running
GPGPU-Sim uArch: core:  9, cta: 4 initialized @(28573,0)
GPGPU-Sim uArch: Shader 2 finished CTA #4 (28578,0), 4 CTAs running
GPGPU-Sim uArch: core:  2, cta: 4 initialized @(28579,0)
GPGPU-Sim uArch: Shader 4 finished CTA #4 (28585,0), 4 CTAs running
GPGPU-Sim uArch: core:  4, cta: 4 initialized @(28586,0)
GPGPU-Sim uArch: Shader 3 finished CTA #4 (28591,0), 4 CTAs running
GPGPU-Sim uArch: core:  3, cta: 4 initialized @(28592,0)
GPGPU-Sim uArch: Shader 5 finished CTA #4 (28607,0), 4 CTAs running
GPGPU-Sim uArch: core:  5, cta: 4 initialized @(28608,0)
GPGPU-Sim uArch: Shader 2 finished CTA #3 (28613,0), 4 CTAs running
GPGPU-Sim uArch: core:  2, cta: 3 initialized @(28614,0)
GPGPU-Sim uArch: Shader 8 finished CTA #3 (28709,0), 4 CTAs running
GPGPU-Sim uArch: core:  8, cta: 3 initialized @(28710,0)
GPGPU-Sim PTX: 10600000 instructions simulated : ctaid=(10,0,0) tid=(6,2,0)
GPGPU-Sim uArch: Shader 7 finished CTA #4 (28789,0), 4 CTAs running
GPGPU-Sim uArch: core:  7, cta: 4 initialized @(28790,0)
GPGPU-Sim uArch: cycles simulated: 29000  inst.: 10389316 (ipc=358.3) sim_rate=432888 (inst/sec) elapsed = 0:0:00:24 / Sun Mar  6 05:31:24 2016
GPGPU-Sim PTX: 10700000 instructions simulated : ctaid=(7,2,0) tid=(10,1,0)
GPGPU-Sim PTX: 10800000 instructions simulated : ctaid=(7,2,0) tid=(5,3,0)
GPGPU-Sim uArch: cycles simulated: 29500  inst.: 10537715 (ipc=357.2) sim_rate=421508 (inst/sec) elapsed = 0:0:00:25 / Sun Mar  6 05:31:25 2016
GPGPU-Sim PTX: 10900000 instructions simulated : ctaid=(9,1,0) tid=(6,0,0)
GPGPU-Sim PTX: 11000000 instructions simulated : ctaid=(6,3,0) tid=(3,3,0)
GPGPU-Sim PTX: 11100000 instructions simulated : ctaid=(11,6,0) tid=(7,1,0)
GPGPU-Sim PTX: 11200000 instructions simulated : ctaid=(14,4,0) tid=(8,6,0)
GPGPU-Sim uArch: cycles simulated: 30500  inst.: 10985728 (ipc=360.2) sim_rate=422528 (inst/sec) elapsed = 0:0:00:26 / Sun Mar  6 05:31:26 2016
GPGPU-Sim PTX: 11300000 instructions simulated : ctaid=(7,4,0) tid=(9,2,0)
GPGPU-Sim PTX: 11400000 instructions simulated : ctaid=(14,6,0) tid=(14,7,0)
GPGPU-Sim PTX: 11500000 instructions simulated : ctaid=(11,0,0) tid=(14,2,0)
GPGPU-Sim uArch: cycles simulated: 31000  inst.: 11236339 (ipc=362.5) sim_rate=416160 (inst/sec) elapsed = 0:0:00:27 / Sun Mar  6 05:31:27 2016
GPGPU-Sim PTX: 11600000 instructions simulated : ctaid=(11,6,0) tid=(0,1,0)
GPGPU-Sim PTX: 11700000 instructions simulated : ctaid=(1,7,0) tid=(12,6,0)
GPGPU-Sim PTX: 11800000 instructions simulated : ctaid=(2,5,0) tid=(4,7,0)
GPGPU-Sim PTX: 11900000 instructions simulated : ctaid=(5,6,0) tid=(10,2,0)
GPGPU-Sim PTX: 12000000 instructions simulated : ctaid=(4,0,0) tid=(4,7,0)
GPGPU-Sim uArch: cycles simulated: 32000  inst.: 11755961 (ipc=367.4) sim_rate=419855 (inst/sec) elapsed = 0:0:00:28 / Sun Mar  6 05:31:28 2016
GPGPU-Sim PTX: 12100000 instructions simulated : ctaid=(9,4,0) tid=(12,5,0)
GPGPU-Sim PTX: 12200000 instructions simulated : ctaid=(9,4,0) tid=(4,2,0)
GPGPU-Sim PTX: 12300000 instructions simulated : ctaid=(10,3,0) tid=(12,1,0)
GPGPU-Sim uArch: cycles simulated: 32500  inst.: 12064677 (ipc=371.2) sim_rate=416023 (inst/sec) elapsed = 0:0:00:29 / Sun Mar  6 05:31:29 2016
GPGPU-Sim PTX: 12400000 instructions simulated : ctaid=(6,5,0) tid=(4,4,0)
GPGPU-Sim uArch: Shader 7 finished CTA #2 (32539,0), 4 CTAs running
GPGPU-Sim uArch: core:  7, cta: 2 initialized @(32540,0)
GPGPU-Sim PTX: 12500000 instructions simulated : ctaid=(5,5,0) tid=(15,4,0)
GPGPU-Sim PTX: 12600000 instructions simulated : ctaid=(0,6,0) tid=(10,5,0)
GPGPU-Sim uArch: cycles simulated: 33000  inst.: 12360275 (ipc=374.6) sim_rate=412009 (inst/sec) elapsed = 0:0:00:30 / Sun Mar  6 05:31:30 2016
GPGPU-Sim PTX: 12700000 instructions simulated : ctaid=(4,0,0) tid=(3,3,0)
GPGPU-Sim PTX: 12800000 instructions simulated : ctaid=(8,5,0) tid=(10,5,0)
GPGPU-Sim uArch: Shader 14 finished CTA #2 (33331,0), 4 CTAs running
GPGPU-Sim uArch: core: 14, cta: 2 initialized @(33332,0)
GPGPU-Sim PTX: 12900000 instructions simulated : ctaid=(4,5,0) tid=(0,6,0)
GPGPU-Sim PTX: 13000000 instructions simulated : ctaid=(3,5,0) tid=(11,4,0)
GPGPU-Sim PTX: 13100000 instructions simulated : ctaid=(7,6,0) tid=(10,3,0)
GPGPU-Sim PTX: 13200000 instructions simulated : ctaid=(9,4,0) tid=(13,6,0)
GPGPU-Sim uArch: cycles simulated: 34000  inst.: 12899358 (ipc=379.4) sim_rate=416108 (inst/sec) elapsed = 0:0:00:31 / Sun Mar  6 05:31:31 2016
GPGPU-Sim PTX: 13300000 instructions simulated : ctaid=(2,7,0) tid=(5,7,0)
GPGPU-Sim PTX: 13400000 instructions simulated : ctaid=(12,5,0) tid=(7,3,0)
GPGPU-Sim PTX: 13500000 instructions simulated : ctaid=(13,5,0) tid=(11,2,0)
GPGPU-Sim uArch: cycles simulated: 34500  inst.: 13149135 (ipc=381.1) sim_rate=410910 (inst/sec) elapsed = 0:0:00:32 / Sun Mar  6 05:31:32 2016
GPGPU-Sim PTX: 13600000 instructions simulated : ctaid=(4,6,0) tid=(14,7,0)
GPGPU-Sim PTX: 13700000 instructions simulated : ctaid=(12,6,0) tid=(0,0,0)
GPGPU-Sim uArch: cycles simulated: 35000  inst.: 13426755 (ipc=383.6) sim_rate=406871 (inst/sec) elapsed = 0:0:00:33 / Sun Mar  6 05:31:33 2016
GPGPU-Sim PTX: 13800000 instructions simulated : ctaid=(8,6,0) tid=(0,6,0)
GPGPU-Sim PTX: 13900000 instructions simulated : ctaid=(9,0,0) tid=(9,5,0)
GPGPU-Sim PTX: 14000000 instructions simulated : ctaid=(13,5,0) tid=(12,7,0)
GPGPU-Sim PTX: 14100000 instructions simulated : ctaid=(14,6,0) tid=(11,0,0)
GPGPU-Sim PTX: 14200000 instructions simulated : ctaid=(12,6,0) tid=(14,3,0)
GPGPU-Sim PTX: 14300000 instructions simulated : ctaid=(4,6,0) tid=(15,4,0)
GPGPU-Sim uArch: cycles simulated: 36000  inst.: 13979675 (ipc=388.3) sim_rate=411166 (inst/sec) elapsed = 0:0:00:34 / Sun Mar  6 05:31:34 2016
GPGPU-Sim PTX: 14400000 instructions simulated : ctaid=(13,6,0) tid=(10,5,0)
GPGPU-Sim PTX: 14500000 instructions simulated : ctaid=(6,1,0) tid=(9,1,0)
GPGPU-Sim PTX: 14600000 instructions simulated : ctaid=(5,6,0) tid=(8,1,0)
GPGPU-Sim uArch: cycles simulated: 36500  inst.: 14271845 (ipc=391.0) sim_rate=407767 (inst/sec) elapsed = 0:0:00:35 / Sun Mar  6 05:31:35 2016
GPGPU-Sim PTX: 14700000 instructions simulated : ctaid=(6,5,0) tid=(14,1,0)
GPGPU-Sim PTX: 14800000 instructions simulated : ctaid=(9,5,0) tid=(7,5,0)
GPGPU-Sim PTX: 14900000 instructions simulated : ctaid=(4,6,0) tid=(0,6,0)
GPGPU-Sim uArch: cycles simulated: 37000  inst.: 14569572 (ipc=393.8) sim_rate=404710 (inst/sec) elapsed = 0:0:00:36 / Sun Mar  6 05:31:36 2016
GPGPU-Sim PTX: 15000000 instructions simulated : ctaid=(12,4,0) tid=(12,6,0)
GPGPU-Sim PTX: 15100000 instructions simulated : ctaid=(8,4,0) tid=(7,0,0)
GPGPU-Sim PTX: 15200000 instructions simulated : ctaid=(4,0,0) tid=(9,0,0)
GPGPU-Sim uArch: cycles simulated: 37500  inst.: 14852802 (ipc=396.1) sim_rate=401427 (inst/sec) elapsed = 0:0:00:37 / Sun Mar  6 05:31:37 2016
GPGPU-Sim PTX: 15300000 instructions simulated : ctaid=(1,6,0) tid=(11,7,0)
GPGPU-Sim PTX: 15400000 instructions simulated : ctaid=(6,5,0) tid=(15,5,0)
GPGPU-Sim PTX: 15500000 instructions simulated : ctaid=(3,5,0) tid=(3,3,0)
GPGPU-Sim uArch: Shader 14 finished CTA #3 (38069,0), 4 CTAs running
GPGPU-Sim uArch: core: 14, cta: 3 initialized @(38070,0)
GPGPU-Sim PTX: 15600000 instructions simulated : ctaid=(14,5,0) tid=(2,0,0)
GPGPU-Sim PTX: 15700000 instructions simulated : ctaid=(8,3,0) tid=(1,7,0)
GPGPU-Sim uArch: cycles simulated: 38500  inst.: 15358040 (ipc=398.9) sim_rate=404158 (inst/sec) elapsed = 0:0:00:38 / Sun Mar  6 05:31:38 2016
GPGPU-Sim PTX: 15800000 instructions simulated : ctaid=(3,5,0) tid=(8,7,0)
GPGPU-Sim PTX: 15900000 instructions simulated : ctaid=(5,5,0) tid=(11,0,0)
GPGPU-Sim PTX: 16000000 instructions simulated : ctaid=(7,4,0) tid=(10,6,0)
GPGPU-Sim uArch: cycles simulated: 39000  inst.: 15568508 (ipc=399.2) sim_rate=399192 (inst/sec) elapsed = 0:0:00:39 / Sun Mar  6 05:31:39 2016
GPGPU-Sim PTX: 16100000 instructions simulated : ctaid=(7,6,0) tid=(6,4,0)
GPGPU-Sim PTX: 16200000 instructions simulated : ctaid=(0,5,0) tid=(9,4,0)
GPGPU-Sim PTX: 16300000 instructions simulated : ctaid=(14,5,0) tid=(7,7,0)
GPGPU-Sim PTX: 16400000 instructions simulated : ctaid=(10,2,0) tid=(0,3,0)
GPGPU-Sim uArch: cycles simulated: 40000  inst.: 16029338 (ipc=400.7) sim_rate=400733 (inst/sec) elapsed = 0:0:00:40 / Sun Mar  6 05:31:40 2016
GPGPU-Sim PTX: 16500000 instructions simulated : ctaid=(9,5,0) tid=(12,0,0)
GPGPU-Sim uArch: Shader 13 finished CTA #2 (40243,0), 4 CTAs running
GPGPU-Sim uArch: core: 13, cta: 2 initialized @(40244,0)
GPGPU-Sim PTX: 16600000 instructions simulated : ctaid=(8,6,0) tid=(8,5,0)
GPGPU-Sim PTX: 16700000 instructions simulated : ctaid=(1,6,0) tid=(12,1,0)
GPGPU-Sim uArch: cycles simulated: 40500  inst.: 16269716 (ipc=401.7) sim_rate=396822 (inst/sec) elapsed = 0:0:00:41 / Sun Mar  6 05:31:41 2016
GPGPU-Sim PTX: 16800000 instructions simulated : ctaid=(5,6,0) tid=(15,2,0)
GPGPU-Sim PTX: 16900000 instructions simulated : ctaid=(10,1,0) tid=(14,4,0)
GPGPU-Sim uArch: cycles simulated: 41000  inst.: 16481392 (ipc=402.0) sim_rate=392414 (inst/sec) elapsed = 0:0:00:42 / Sun Mar  6 05:31:42 2016
GPGPU-Sim PTX: 17000000 instructions simulated : ctaid=(7,6,0) tid=(14,7,0)
GPGPU-Sim PTX: 17100000 instructions simulated : ctaid=(11,0,0) tid=(11,0,0)
GPGPU-Sim PTX: 17200000 instructions simulated : ctaid=(13,4,0) tid=(9,1,0)
GPGPU-Sim uArch: Shader 6 finished CTA #1 (41674,0), 4 CTAs running
GPGPU-Sim uArch: core:  6, cta: 1 initialized @(41675,0)
GPGPU-Sim PTX: 17300000 instructions simulated : ctaid=(5,5,0) tid=(0,5,0)
GPGPU-Sim PTX: 17400000 instructions simulated : ctaid=(6,4,0) tid=(11,6,0)
GPGPU-Sim uArch: cycles simulated: 42000  inst.: 16962721 (ipc=403.9) sim_rate=394481 (inst/sec) elapsed = 0:0:00:43 / Sun Mar  6 05:31:43 2016
GPGPU-Sim PTX: 17500000 instructions simulated : ctaid=(8,4,0) tid=(11,2,0)
GPGPU-Sim uArch: Shader 5 finished CTA #1 (42280,0), 4 CTAs running
GPGPU-Sim uArch: core:  5, cta: 1 initialized @(42281,0)
GPGPU-Sim PTX: 17600000 instructions simulated : ctaid=(8,5,0) tid=(3,6,0)
GPGPU-Sim uArch: cycles simulated: 42500  inst.: 17192488 (ipc=404.5) sim_rate=390738 (inst/sec) elapsed = 0:0:00:44 / Sun Mar  6 05:31:44 2016
GPGPU-Sim uArch: Shader 5 finished CTA #3 (42550,0), 4 CTAs running
GPGPU-Sim uArch: core:  5, cta: 3 initialized @(42551,0)
GPGPU-Sim PTX: 17700000 instructions simulated : ctaid=(10,1,0) tid=(13,5,0)
GPGPU-Sim PTX: 17800000 instructions simulated : ctaid=(7,6,0) tid=(7,3,0)
GPGPU-Sim uArch: Shader 4 finished CTA #0 (42923,0), 4 CTAs running
GPGPU-Sim uArch: core:  4, cta: 0 initialized @(42924,0)
GPGPU-Sim uArch: cycles simulated: 43000  inst.: 17397654 (ipc=404.6) sim_rate=386614 (inst/sec) elapsed = 0:0:00:45 / Sun Mar  6 05:31:45 2016
GPGPU-Sim PTX: 17900000 instructions simulated : ctaid=(7,0,0) tid=(3,3,0)
GPGPU-Sim PTX: 18000000 instructions simulated : ctaid=(4,6,0) tid=(3,2,0)
GPGPU-Sim PTX: 18100000 instructions simulated : ctaid=(2,6,0) tid=(11,7,0)
GPGPU-Sim PTX: 18200000 instructions simulated : ctaid=(4,6,0) tid=(13,3,0)
GPGPU-Sim uArch: Shader 14 finished CTA #1 (43722,0), 4 CTAs running
GPGPU-Sim uArch: core: 14, cta: 1 initialized @(43723,0)
GPGPU-Sim PTX: 18300000 instructions simulated : ctaid=(3,5,0) tid=(12,1,0)
GPGPU-Sim uArch: Shader 12 finished CTA #3 (43911,0), 4 CTAs running
GPGPU-Sim uArch: core: 12, cta: 3 initialized @(43912,0)
GPGPU-Sim uArch: Shader 9 finished CTA #3 (43970,0), 4 CTAs running
GPGPU-Sim uArch: core:  9, cta: 3 initialized @(43971,0)
GPGPU-Sim uArch: cycles simulated: 44000  inst.: 17884025 (ipc=406.5) sim_rate=388783 (inst/sec) elapsed = 0:0:00:46 / Sun Mar  6 05:31:46 2016
GPGPU-Sim PTX: 18400000 instructions simulated : ctaid=(0,5,0) tid=(6,3,0)
GPGPU-Sim uArch: Shader 14 finished CTA #0 (44149,0), 4 CTAs running
GPGPU-Sim uArch: core: 14, cta: 0 initialized @(44150,0)
GPGPU-Sim uArch: Shader 9 finished CTA #4 (44232,0), 4 CTAs running
GPGPU-Sim uArch: core:  9, cta: 4 initialized @(44233,0)
GPGPU-Sim uArch: Shader 7 finished CTA #4 (44245,0), 4 CTAs running
GPGPU-Sim uArch: core:  7, cta: 4 initialized @(44246,0)
GPGPU-Sim PTX: 18500000 instructions simulated : ctaid=(0,6,0) tid=(4,7,0)
GPGPU-Sim uArch: Shader 10 finished CTA #3 (44479,0), 4 CTAs running
GPGPU-Sim uArch: core: 10, cta: 3 initialized @(44480,0)
GPGPU-Sim uArch: cycles simulated: 44500  inst.: 18101187 (ipc=406.8) sim_rate=385131 (inst/sec) elapsed = 0:0:00:47 / Sun Mar  6 05:31:47 2016
GPGPU-Sim PTX: 18600000 instructions simulated : ctaid=(6,7,0) tid=(4,0,0)
GPGPU-Sim PTX: 18700000 instructions simulated : ctaid=(4,6,0) tid=(13,1,0)
GPGPU-Sim uArch: Shader 11 finished CTA #4 (44776,0), 4 CTAs running
GPGPU-Sim uArch: core: 11, cta: 4 initialized @(44777,0)
[...]
maxmrqlatency = 616 
maxdqlatency = 0 
maxmflatency = 1827 
averagemflatency = 254 
max_icnt2mem_latency = 1107 
max_icnt2sh_latency = 145353 
mrq_lat_table:17086 	2082 	1557 	2584 	6329 	4652 	3777 	2182 	284 	10 	0 	0 	0 	0 	0 	0 	0 	0 	0 	0 	0 	0 	0 	0 	0 	0 	0 	0 	0 	0 	0 	0 	
dq_lat_table:0 	0 	0 	0 	0 	0 	0 	0 	0 	0 	0 	0 	0 	0 	0 	0 	0 	0 	0 	0 	0 	0 	0 	0 	0 	0 	0 	0 	0 	0 	0 	0 	
mf_lat_table:0 	0 	0 	0 	0 	0 	0 	58721 	12300 	4671 	861 	0 	0 	0 	0 	0 	0 	0 	0 	0 	0 	0 	0 	0 	0 	0 	0 	0 	0 	0 	0 	0 	
icnt2mem_lat_table:0 	0 	0 	24023 	16341 	16943 	34917 	2250 	2354 	433 	4 	0 	0 	0 	0 	0 	0 	0 	0 	0 	0 	0 	0 	0 	
icnt2sh_lat_table:0 	0 	0 	8691 	6061 	1597 	55 	0 	0 	186 	497 	1395 	3086 	2636 	6200 	12118 	25444 	8587 	0 	0 	0 	0 	0 	0 	
mf_lat_pw_table:0 	0 	0 	0 	0 	0 	0 	241 	10 	16 	2 	0 	0 	0 	0 	0 	0 	0 	0 	0 	0 	0 	0 	0 	0 	0 	0 	0 	0 	0 	0 	0 	
maximum concurrent accesses to same row:
dram[0]:        54        56        36        34        28        24        40        26        28        20        24        14        12        13        20        20 
dram[1]:        52        54        34        32        20        22        35        35        24        16        15        13        14        16        18        20 
dram[2]:        62        62        54        56        30        28        29        38        22        24        21        34        15        20        22        20 
dram[3]:        58        60        54        56        24        28        35        38        24        22        19        17        17        18        20        18 
dram[4]:        62        64        56        52        32        28        36        26        25        20        16        16        14        14        20        26 
dram[5]:        58        60        56        48        26        30        32        36        26        28        16        14        16        16        18        20 
maximum service time to same row:
dram[0]:     15096     10451     19151     16734     17979     16513     17786     14932     18062     17930     42400     38518     21971     42463     22287     19579 
dram[1]:     12892     13501     16787     17672     16657     13769     14345     23849     19433     17151     35147     43918     38081     37589     35209     24267 
dram[2]:     15398     12013     17316     30944     19691     16439     13250     31782     19923     18487     31116     19778     23392     29134     38293     19408 
dram[3]:     11562     18115     34444     30839     16841     16904     17761     16688     19856     19422     23270     19728     23225     37061     38349     19160 
dram[4]:     11548     15753     17696     27348     13842     17047     14137     16347     18033     17953     36193     19621     30557     30494     30640     19471 
dram[5]:     18392     15429     17966     27355     15160     16063     16825     17544     17835     17815     36055     20860     28847     28845     20124     19333 
average row accesses per activate:
dram[0]:  5.013333  4.778947  4.691176  4.375000  3.612613  3.507812  3.970588  3.852174  3.295302  3.290323  3.539216  3.398438  3.314286  3.729508  4.282051  3.896907 
dram[1]:  4.255319  4.975000  4.632353  5.647059  3.238806  3.710280  3.108844  4.530864  3.044944  2.950310  3.535088  3.466019  3.035503  3.507576  3.734694  4.087500 
dram[2]:  4.549450  5.263158  5.626866  6.320755  3.745614  3.858333  3.688000  5.521127  3.439189  3.445860  3.372263  3.278688  3.227778  3.496644  4.619048  4.720000 
dram[3]:  4.156863  5.971831  7.372093  5.231884  3.796460  3.100000  3.981132  3.511278  3.096591  3.344262  3.322835  2.948052  3.482353  3.406977  4.584415  3.740385 
dram[4]:  6.431035  5.120482  6.883721  4.500000  3.408333  3.418033  4.285714  3.621849  2.958580  3.523179  3.534483  3.058394  3.429530  3.462069  3.939024  3.940594 
dram[5]:  5.257143  5.306667  4.857143  5.339286  3.750000  3.685185  3.322835  3.810526  3.421429  3.275641  3.250000  3.802083  3.630573  3.589552  4.178571  4.308642 
average row locality = 40543/10697 = 3.790128
number of total memory accesses made:
dram[0]:         0         0         0         0         0         0         0         0         0         0         0         0         0         0         0         0 
dram[1]:         0         0         0         0         0         0         0         0         0         0         0         0         0         0         0         0 
dram[2]:         0         0         0         0         0         0         0         0         0         0         0         0         0         0         0         0 
dram[3]:         0         0         0         0         0         0         0         0         0         0         0         0         0         0         0         0 
dram[4]:         0         0         0         0         0         0         0         0         0         0         0         0         0         0         0         0 
dram[5]:         0         0         0         0         0         0         0         0         0         0         0         0         0         0         0         0 
total accesses: 0
min_bank_accesses = 0!
min_chip_accesses = 0!
number of total read accesses:
dram[0]:       168       194       138       136       163       184       156       178       197       204       147       177       190       189       146       161 
dram[1]:       175       171       137       123       178       160       182       146       218       193       171       142       209       190       155       143 
dram[2]:       179       174       156       142       175       189       182       155       206       218       184       161       232       206       165       152 
dram[3]:       184       183       134       158       174       205       166       186       221       244       165       186       234       235       151       160 
dram[4]:       166       184       128       135       170       172       155       173       200       213       163       173       207       205       140       171 
dram[5]:       164       173       132       129       175       162       171       145       193       207       166       145       230       199       148       153 
total reads: 16730
bank skew: 244/123 = 1.98
chip skew: 2986/2692 = 1.11
number of total write accesses:
dram[0]:       208       260       181       179       238       265       249       265       294       306       214       258       274       266       188       217 
dram[1]:       225       227       178       165       256       237       275       221       324       282       232       215       304       273       211       184 
dram[2]:       235       226       221       193       252       274       279       237       303       323       278       239       349       315       223       202 
dram[3]:       240       241       183       203       255       291       256       281       324       368       257       268       358       351       202       229 
dram[4]:       207       241       168       180       239       245       235       258       300       319       247       246       304       297       183       227 
dram[5]:       204       225       174       170       245       236       251       217       286       304       237       220       340       282       203       196 
total reads: 23813
bank skew: 368/165 = 2.23
chip skew: 4307/3790 = 1.14
average mf latency per bank:
dram[0]:        579       444       636       606       524       456       578       491       439       418       560       477       435       440       512       458
dram[1]:        644       502       635       645       455       480       470       536       377       417       474       522       367       390       437       474
dram[2]:        511       544       560       618       519       466       494       616       455       400       462       531       365       408       472       481
dram[3]:        507       534       627       590       470       436       497       490       395       358       473       447       340       356       495       438
dram[4]:        579       483       713       666       525       545       580       536       434       409       504       504       403       404       524       459
dram[5]:        564       484       665       635       476       495       492       540       416       372       462       492       329       375       441       445
maximum mf latency per bank:
dram[0]:       1293      1002      1676      1197      1363      1246      1436      1223      1354      1238      1300      1170      1424      1291      1230      1128
dram[1]:        914      1006      1318      1232      1097      1194      1045      1048      1033       997      1067      1015       960       939       997      1089
dram[2]:       1316      1333      1735      1723      1548      1584      1584      1442      1432      1494      1290      1221      1328      1442      1382      1319
dram[3]:       1138      1370      1537      1697      1341      1619      1117      1455      1075      1072       991      1106      1029      1192      1153      1087
dram[4]:       1393      1510      1827      1821      1698      1698      1689      1761      1615      1426      1322      1302      1365      1197      1231      1358
dram[5]:       1374      1347      1776      1558      1604      1693      1447      1507      1206      1027      1112      1036      1117      1110      1102      1070

Number of Memory Banks Accessed per Memory Operation per Warp (from 0):
0	0	0	0	0	0	0	0	0	0	0	0	0	0	0	0	0	0	0	0	0	0	0	0	0	0	0	0	0	0	0	0	0	0	0	0	0	0	0	0	0	0	0	0	0	0	0	0	0	0	0	0	0	0	0	0	0	0	0	0	0	0	0	0	0	0	0	0	0	0	0	0	0	0	0	0	0	0	0	0	0	0	0	0	0	0	0	0	0	0	0	0	0	0	0	0	
Average # of Memory Banks Accessed per Memory Operation per Warp=-nan

position of mrq chosen
0	0	0	0	0	0	0	0	0	0	0	0	0	0	0	0	

average position of mrq chosen = -nan
Memory Partition 0: 
Cache L2_bank_000:
MSHR contents

Cache L2_bank_001:
MSHR contents

In Dram Latency Queue (total = 0): 
DRAM[0]: 16 bks, busW=4 BL=8 CL=12, tRRD=2 tCCD=6, tRCD=12 tRAS=28 tRP=12 tRC=40
n_cmd=191866 n_nop=175697 n_act=1737 n_pre=1721 n_req=6590 n_rd=5456 n_write=7255 bw_util=0.1325
n_activity=64970 dram_eff=0.3913
bk0: 336a 182114i bk1: 388a 180289i bk2: 276a 182222i bk3: 272a 182090i bk4: 326a 178799i bk5: 368a 178303i bk6: 312a 178539i bk7: 356a 177791i bk8: 394a 177896i bk9: 408a 177290i bk10: 294a 180007i bk11: 354a 178902i bk12: 380a 177706i bk13: 378a 178049i bk14: 292a 181132i bk15: 322a 180141i 
dram_util_bins: 0 0 0 0 0 0 0 0 0 0
dram_eff_bins: 0 0 0 0 0 0 0 0 0 0
mrqq: max=16 avg=1.38431
Memory Partition 1: 
Cache L2_bank_002:
MSHR contents

Cache L2_bank_003:
MSHR contents

In Dram Latency Queue (total = 0): 
DRAM[1]: 16 bks, busW=4 BL=8 CL=12, tRRD=2 tCCD=6, tRCD=12 tRAS=28 tRP=12 tRC=40
n_cmd=191866 n_nop=175737 n_act=1797 n_pre=1781 n_req=6502 n_rd=5386 n_write=7165 bw_util=0.1308
n_activity=64962 dram_eff=0.3864
bk0: 350a 181303i bk1: 342a 181858i bk2: 274a 182027i bk3: 246a 183351i bk4: 356a 178388i bk5: 320a 179278i bk6: 364a 177444i bk7: 292a 180313i bk8: 436a 176532i bk9: 386a 177321i bk10: 342a 179198i bk11: 284a 180374i bk12: 418a 176544i bk13: 380a 178065i bk14: 310a 180977i bk15: 286a 181879i 
dram_util_bins: 0 0 0 0 0 0 0 0 0 0
dram_eff_bins: 0 0 0 0 0 0 0 0 0 0
mrqq: max=16 avg=1.20805
Memory Partition 2: 
Cache L2_bank_004:
MSHR contents

Cache L2_bank_005:
MSHR contents

In Dram Latency Queue (total = 0): 
DRAM[2]: 16 bks, busW=4 BL=8 CL=12, tRRD=2 tCCD=6, tRCD=12 tRAS=28 tRP=12 tRC=40
n_cmd=191866 n_nop=174774 n_act=1769 n_pre=1753 n_req=7025 n_rd=5752 n_write=7818 bw_util=0.1415
n_activity=65552 dram_eff=0.414
bk0: 358a 180559i bk1: 348a 181831i bk2: 312a 181176i bk3: 284a 182609i bk4: 350a 178520i bk5: 378a 177470i bk6: 364a 176817i bk7: 310a 179057i bk8: 412a 177598i bk9: 436a 175443i bk10: 368a 176830i bk11: 322a 178807i bk12: 464a 174152i bk13: 412a 175017i bk14: 330a 179240i bk15: 304a 179790i 
dram_util_bins: 0 0 0 0 0 0 0 0 0 0
dram_eff_bins: 0 0 0 0 0 0 0 0 0 0
mrqq: max=16 avg=1.4972
Memory Partition 3: 
Cache L2_bank_006:
MSHR contents

Cache L2_bank_007:
MSHR contents

In Dram Latency Queue (total = 0): 
DRAM[3]: 16 bks, busW=4 BL=8 CL=12, tRRD=2 tCCD=6, tRCD=12 tRAS=28 tRP=12 tRC=40
n_cmd=191866 n_nop=173840 n_act=1960 n_pre=1944 n_req=7293 n_rd=5972 n_write=8150 bw_util=0.1472
n_activity=69662 dram_eff=0.4054
bk0: 368a 180702i bk1: 366a 180647i bk2: 268a 182866i bk3: 316a 181619i bk4: 348a 178468i bk5: 410a 176872i bk6: 332a 178906i bk7: 372a 176580i bk8: 442a 175577i bk9: 488a 174228i bk10: 330a 178535i bk11: 372a 177629i bk12: 468a 174327i bk13: 470a 173963i bk14: 302a 179134i bk15: 320a 178979i 
dram_util_bins: 0 0 0 0 0 0 0 0 0 0
dram_eff_bins: 0 0 0 0 0 0 0 0 0 0
mrqq: max=16 avg=1.41503
Memory Partition 4: 
Cache L2_bank_008:
MSHR contents

Cache L2_bank_009:
MSHR contents

In Dram Latency Queue (total = 0): 
DRAM[4]: 16 bks, busW=4 BL=8 CL=12, tRRD=2 tCCD=6, tRCD=12 tRAS=28 tRP=12 tRC=40
n_cmd=191866 n_nop=175516 n_act=1756 n_pre=1740 n_req=6651 n_rd=5510 n_write=7344 bw_util=0.134
n_activity=64061 dram_eff=0.4013
bk0: 332a 182671i bk1: 368a 181676i bk2: 256a 182650i bk3: 270a 182541i bk4: 340a 178991i bk5: 344a 177592i bk6: 310a 178625i bk7: 346a 177339i bk8: 400a 176616i bk9: 426a 176046i bk10: 326a 178627i bk11: 346a 178259i bk12: 414a 175208i bk13: 410a 176485i bk14: 280a 181569i bk15: 342a 179160i 
dram_util_bins: 0 0 0 0 0 0 0 0 0 0
dram_eff_bins: 0 0 0 0 0 0 0 0 0 0
mrqq: max=16 avg=1.45612
Memory Partition 5: 
Cache L2_bank_010:
MSHR contents

Cache L2_bank_011:
MSHR contents

In Dram Latency Queue (total = 0): 
DRAM[5]: 16 bks, busW=4 BL=8 CL=12, tRRD=2 tCCD=6, tRCD=12 tRAS=28 tRP=12 tRC=40
n_cmd=191866 n_nop=176004 n_act=1678 n_pre=1662 n_req=6482 n_rd=5384 n_write=7138 bw_util=0.1305
n_activity=63136 dram_eff=0.3967
bk0: 328a 182468i bk1: 346a 181997i bk2: 264a 182609i bk3: 258a 182883i bk4: 350a 179281i bk5: 324a 178866i bk6: 342a 178711i bk7: 290a 180116i bk8: 386a 178413i bk9: 414a 177536i bk10: 332a 179086i bk11: 290a 180760i bk12: 460a 175529i bk13: 398a 176748i bk14: 296a 180883i bk15: 306a 181121i 
dram_util_bins: 0 0 0 0 0 0 0 0 0 0
dram_eff_bins: 0 0 0 0 0 0 0 0 0 0
mrqq: max=16 avg=1.21149

========= L2 cache stats =========
L2_cache_bank[0]: Access = 7931, Miss = 1305, Miss_rate = 0.165, Pending_hits = 78, Reservation_fails = 1131
L2_cache_bank[1]: Access = 8142, Miss = 1423, Miss_rate = 0.175, Pending_hits = 69, Reservation_fails = 633
L2_cache_bank[2]: Access = 8228, Miss = 1425, Miss_rate = 0.173, Pending_hits = 73, Reservation_fails = 511
L2_cache_bank[3]: Access = 7920, Miss = 1268, Miss_rate = 0.160, Pending_hits = 64, Reservation_fails = 387
L2_cache_bank[4]: Access = 7907, Miss = 1479, Miss_rate = 0.187, Pending_hits = 85, Reservation_fails = 581
L2_cache_bank[5]: Access = 8183, Miss = 1397, Miss_rate = 0.171, Pending_hits = 73, Reservation_fails = 373
L2_cache_bank[6]: Access = 8376, Miss = 1429, Miss_rate = 0.171, Pending_hits = 61, Reservation_fails = 520
L2_cache_bank[7]: Access = 8688, Miss = 1557, Miss_rate = 0.179, Pending_hits = 72, Reservation_fails = 419
L2_cache_bank[8]: Access = 8175, Miss = 1329, Miss_rate = 0.163, Pending_hits = 69, Reservation_fails = 788
L2_cache_bank[9]: Access = 7891, Miss = 1426, Miss_rate = 0.181, Pending_hits = 64, Reservation_fails = 389
L2_cache_bank[10]: Access = 8099, Miss = 1379, Miss_rate = 0.170, Pending_hits = 55, Reservation_fails = 592
L2_cache_bank[11]: Access = 7725, Miss = 1313, Miss_rate = 0.170, Pending_hits = 70, Reservation_fails = 441
L2_total_cache_accesses = 97265
L2_total_cache_misses = 16730
L2_total_cache_miss_rate = 0.1720
L2_total_cache_pending_hits = 833
L2_total_cache_reservation_fails = 6765
L2_total_cache_breakdown:
	L2_cache_stats_breakdown[GLOBAL_ACC_R][HIT] = 3827
	L2_cache_stats_breakdown[GLOBAL_ACC_R][HIT_RESERVED] = 13
	L2_cache_stats_breakdown[GLOBAL_ACC_R][MISS] = 262
	L2_cache_stats_breakdown[GLOBAL_ACC_R][RESERVATION_FAIL] = 7
	L2_cache_stats_breakdown[LOCAL_ACC_R][HIT] = 11483
	L2_cache_stats_breakdown[LOCAL_ACC_R][HIT_RESERVED] = 79
	L2_cache_stats_breakdown[LOCAL_ACC_R][MISS] = 710
	L2_cache_stats_breakdown[CONST_ACC_R][HIT] = 22
	L2_cache_stats_breakdown[CONST_ACC_R][HIT_RESERVED] = 6
	L2_cache_stats_breakdown[CONST_ACC_R][MISS] = 2
	L2_cache_stats_breakdown[CONST_ACC_R][RESERVATION_FAIL] = 353
	L2_cache_stats_breakdown[GLOBAL_ACC_W][HIT] = 5580
	L2_cache_stats_breakdown[GLOBAL_ACC_W][HIT_RESERVED] = 564
	L2_cache_stats_breakdown[GLOBAL_ACC_W][MISS] = 2048
	L2_cache_stats_breakdown[GLOBAL_ACC_W][RESERVATION_FAIL] = 95
	L2_cache_stats_breakdown[LOCAL_ACC_W][HIT] = 39276
	L2_cache_stats_breakdown[LOCAL_ACC_W][HIT_RESERVED] = 15
	L2_cache_stats_breakdown[LOCAL_ACC_W][MISS] = 12666
	L2_cache_stats_breakdown[LOCAL_ACC_W][RESERVATION_FAIL] = 545
	L2_cache_stats_breakdown[L1_WRBK_ACC][HIT] = 5972
	L2_cache_stats_breakdown[L1_WRBK_ACC][MISS] = 989
	L2_cache_stats_breakdown[INST_ACC_R][HIT] = 13542
	L2_cache_stats_breakdown[INST_ACC_R][HIT_RESERVED] = 156
	L2_cache_stats_breakdown[INST_ACC_R][MISS] = 53
	L2_cache_stats_breakdown[INST_ACC_R][RESERVATION_FAIL] = 5765
L2_cache_data_port_util = 0.176
L2_cache_fill_port_util = 0.038

icnt_total_pkts_mem_to_simt=210864
icnt_total_pkts_simt_to_mem=345367
LD_mem_lat_dist  0 0 0 0 0 0 0 0 0 0 0 0 0 0 0 0 0 0 0 0 0 0 0 0 0 0 0
ST_mem_lat_dist  0 0 0 0 0 0 0 0 0 0 0 0 0 0 0 0 0 0 0 0 0 0 0 0 0 0 0
----------------------------Interconnect-DETAILS--------------------------------
Class 0:
Packet latency average = 17.1326
	minimum = 6
	maximum = 630
Network latency average = 13.4899
	minimum = 6
	maximum = 582
Slowest packet = 1359
Flit latency average = 12.3201
	minimum = 6
	maximum = 578
Slowest flit = 5056
Fragmentation average = 0.0909372
	minimum = 0
	maximum = 553
Injected packet rate average = 0.0477937
	minimum = 0.0403842 (at node 6)
	maximum = 0.0556779 (at node 22)
Accepted packet rate average = 0.0477937
	minimum = 0.0372608 (at node 6)
	maximum = 0.0597713 (at node 22)
Injected flit rate average = 0.141731
	minimum = 0.112202 (at node 19)
	maximum = 0.169111 (at node 4)
Accepted flit rate average= 0.141731
	minimum = 0.0847448 (at node 1)
	maximum = 0.20931 (at node 22)
Injected packet length average = 2.96547
Accepted packet length average = 2.96547
Total in-flight flits = 0 (0 measured)
====== Overall Traffic Statistics ======
====== Traffic class 0 ======
Packet latency average = 17.1326 (1 samples)
	minimum = 6 (1 samples)
	maximum = 630 (1 samples)
Network latency average = 13.4899 (1 samples)
	minimum = 6 (1 samples)
	maximum = 582 (1 samples)
Flit latency average = 12.3201 (1 samples)
	minimum = 6 (1 samples)
	maximum = 578 (1 samples)
Fragmentation average = 0.0909372 (1 samples)
	minimum = 0 (1 samples)
	maximum = 553 (1 samples)
Injected packet rate average = 0.0477937 (1 samples)
	minimum = 0.0403842 (1 samples)
	maximum = 0.0556779 (1 samples)
Accepted packet rate average = 0.0477937 (1 samples)
	minimum = 0.0372608 (1 samples)
	maximum = 0.0597713 (1 samples)
Injected flit rate average = 0.141731 (1 samples)
	minimum = 0.112202 (1 samples)
	maximum = 0.169111 (1 samples)
Accepted flit rate average = 0.141731 (1 samples)
	minimum = 0.0847448 (1 samples)
	maximum = 0.20931 (1 samples)
Injected packet size average = 2.96547 (1 samples)
Accepted packet size average = 2.96547 (1 samples)
Hops average = 1 (1 samples)
----------------------------END-of-Interconnect-DETAILS-------------------------


gpgpu_simulation_time = 0 days, 0 hrs, 3 min, 26 sec (206 sec)
gpgpu_simulation_rate = 304284 (inst/sec)
gpgpu_simulation_rate = 705 (cycle/sec)
GPGPU-Sim: synchronize waiting for inactive GPU simulation
GPGPU-Sim API: Stream Manager State
GPGPU-Sim: detected inactive GPU simulation thread

checksum=75ef40cb5b8e
Kernel Time: 204449.968750 
