

        *** GPGPU-Sim Simulator Version 3.2.2  [build 0] ***


GPGPU-Sim PTX: simulation mode 0 (can change with PTX_SIM_MODE_FUNC environment variable:
               1=functional simulation only, 0=detailed performance simulator)
GPGPU-Sim: Configuration options:

-network_mode                           1 # Interconnection network mode
-inter_config_file   config_fermi_islip.icnt # Interconnection network config file
-gpgpu_ptx_use_cuobjdump                    1 # Use cuobjdump to extract ptx and sass from binaries
-gpgpu_experimental_lib_support                    0 # Try to extract code from cuda libraries [Broken because of unknown cudaGetExportTable]
-gpgpu_ptx_convert_to_ptxplus                    0 # Convert SASS (native ISA) to ptxplus and run ptxplus
-gpgpu_ptx_force_max_capability                   20 # Force maximum compute capability
-gpgpu_ptx_inst_debug_to_file                    0 # Dump executed instructions' debug information to file
-gpgpu_ptx_inst_debug_file       inst_debug.txt # Executed instructions' debug output file
-gpgpu_ptx_inst_debug_thread_uid                    1 # Thread UID for executed instructions' debug output
-gpgpu_simd_model                       1 # 1 = post-dominator
-gpgpu_shader_core_pipeline              1536:32 # shader core pipeline config, i.e., {<nthread>:<warpsize>}
-gpgpu_tex_cache:l1  4:128:24,L:R:m:N:L,F:128:4,128:2 # per-shader L1 texture cache  (READ-ONLY) config  {<nsets>:<bsize>:<assoc>,<rep>:<wr>:<alloc>:<wr_alloc>,<mshr>:<N>:<merge>,<mq>:<rf>}
-gpgpu_const_cache:l1 64:64:2,L:R:f:N:L,A:2:32,4 # per-shader L1 constant memory cache  (READ-ONLY) config  {<nsets>:<bsize>:<assoc>,<rep>:<wr>:<alloc>:<wr_alloc>,<mshr>:<N>:<merge>,<mq>} 
-gpgpu_cache:il1     4:128:4,L:R:f:N:L,A:2:32,4 # shader L1 instruction cache config  {<nsets>:<bsize>:<assoc>,<rep>:<wr>:<alloc>:<wr_alloc>,<mshr>:<N>:<merge>,<mq>} 
-gpgpu_cache:dl1     32:128:4,L:L:m:N:H,A:32:8,8 # per-shader L1 data cache config  {<nsets>:<bsize>:<assoc>,<rep>:<wr>:<alloc>:<wr_alloc>,<mshr>:<N>:<merge>,<mq> | none}
-gpgpu_cache:dl1PrefL1                 none # per-shader L1 data cache config  {<nsets>:<bsize>:<assoc>,<rep>:<wr>:<alloc>:<wr_alloc>,<mshr>:<N>:<merge>,<mq> | none}
-gpgpu_cache:dl1PreShared                 none # per-shader L1 data cache config  {<nsets>:<bsize>:<assoc>,<rep>:<wr>:<alloc>:<wr_alloc>,<mshr>:<N>:<merge>,<mq> | none}
-gmem_skip_L1D                          0 # global memory access skip L1D cache (implements -Xptxas -dlcm=cg, default=no skip)
-gpgpu_perfect_mem                      0 # enable perfect memory mode (no cache miss)
-n_regfile_gating_group                    4 # group of lanes that should be read/written together)
-gpgpu_clock_gated_reg_file                    0 # enable clock gated reg file for power calculations
-gpgpu_clock_gated_lanes                    0 # enable clock gated lanes for power calculations
-gpgpu_shader_registers                32768 # Number of registers per shader core. Limits number of concurrent CTAs. (default 8192)
-gpgpu_shader_cta                       8 # Maximum number of concurrent CTAs in shader (default 8)
-gpgpu_num_cta_barriers                   16 # Maximum number of named barriers per CTA (default 16)
-gpgpu_n_clusters                      15 # number of processing clusters
-gpgpu_n_cores_per_cluster                    1 # number of simd cores per cluster
-gpgpu_n_cluster_ejection_buffer_size                    8 # number of packets in ejection buffer
-gpgpu_n_ldst_response_buffer_size                    2 # number of response packets in ld/st unit ejection buffer
-gpgpu_shmem_size                   16384 # Size of shared memory per shader core (default 16kB)
-gpgpu_shmem_size                   49152 # Size of shared memory per shader core (default 16kB)
-gpgpu_shmem_size_PrefL1                16384 # Size of shared memory per shader core (default 16kB)
-gpgpu_shmem_size_PrefShared                16384 # Size of shared memory per shader core (default 16kB)
-gpgpu_shmem_num_banks                   32 # Number of banks in the shared memory in each shader core (default 16)
-gpgpu_shmem_limited_broadcast                    0 # Limit shared memory to do one broadcast per cycle (default on)
-gpgpu_shmem_warp_parts                    1 # Number of portions a warp is divided into for shared memory bank conflict check 
-gpgpu_warpdistro_shader                   -1 # Specify which shader core to collect the warp size distribution from
-gpgpu_warp_issue_shader                    0 # Specify which shader core to collect the warp issue distribution from
-gpgpu_local_mem_map                    1 # Mapping from local memory space address to simulated GPU physical address space (default = enabled)
-gpgpu_num_reg_banks                   16 # Number of register banks (default = 8)
-gpgpu_reg_bank_use_warp_id                    0 # Use warp ID in mapping registers to banks (default = off)
-gpgpu_operand_collector_num_units_sp                    6 # number of collector units (default = 4)
-gpgpu_operand_collector_num_units_sfu                    8 # number of collector units (default = 4)
-gpgpu_operand_collector_num_units_mem                    2 # number of collector units (default = 2)
-gpgpu_operand_collector_num_units_gen                    0 # number of collector units (default = 0)
-gpgpu_operand_collector_num_in_ports_sp                    2 # number of collector unit in ports (default = 1)
-gpgpu_operand_collector_num_in_ports_sfu                    1 # number of collector unit in ports (default = 1)
-gpgpu_operand_collector_num_in_ports_mem                    1 # number of collector unit in ports (default = 1)
-gpgpu_operand_collector_num_in_ports_gen                    0 # number of collector unit in ports (default = 0)
-gpgpu_operand_collector_num_out_ports_sp                    2 # number of collector unit in ports (default = 1)
-gpgpu_operand_collector_num_out_ports_sfu                    1 # number of collector unit in ports (default = 1)
-gpgpu_operand_collector_num_out_ports_mem                    1 # number of collector unit in ports (default = 1)
-gpgpu_operand_collector_num_out_ports_gen                    0 # number of collector unit in ports (default = 0)
-gpgpu_coalesce_arch                   13 # Coalescing arch (default = 13, anything else is off for now)
-gpgpu_num_sched_per_core                    2 # Number of warp schedulers per core
-gpgpu_max_insn_issue_per_warp                    1 # Max number of instructions that can be issued per warp in one cycle by scheduler
-gpgpu_simt_core_sim_order                    1 # Select the simulation order of cores in a cluster (0=Fix, 1=Round-Robin)
-gpgpu_pipeline_widths        2,1,1,2,1,1,2 # Pipeline widths ID_OC_SP,ID_OC_SFU,ID_OC_MEM,OC_EX_SP,OC_EX_SFU,OC_EX_MEM,EX_WB
-gpgpu_num_sp_units                     2 # Number of SP units (default=1)
-gpgpu_num_sfu_units                    1 # Number of SF units (default=1)
-gpgpu_num_mem_units                    1 # Number if ldst units (default=1) WARNING: not hooked up to anything
-gpgpu_scheduler                      gto # Scheduler configuration: < lrr | gto | two_level_active > If two_level_active:<num_active_warps>:<inner_prioritization>:<outer_prioritization>For complete list of prioritization values see shader.h enum scheduler_prioritization_typeDefault: gto
-gpgpu_dram_scheduler                    1 # 0 = fifo, 1 = FR-FCFS (defaul)
-gpgpu_dram_partition_queues              8:8:8:8 # i2$:$2d:d2$:$2i
-l2_ideal                               0 # Use a ideal L2 cache that always hit
-gpgpu_cache:dl2     64:128:8,L:B:m:W:L,A:32:4,4:0,32 # unified banked L2 data cache config  {<nsets>:<bsize>:<assoc>,<rep>:<wr>:<alloc>:<wr_alloc>,<mshr>:<N>:<merge>,<mq>}
-gpgpu_cache:dl2_texture_only                    0 # L2 cache used for texture only
-gpgpu_n_mem                            6 # number of memory modules (e.g. memory controllers) in gpu
-gpgpu_n_sub_partition_per_mchannel                    2 # number of memory subpartition in each memory module
-gpgpu_n_mem_per_ctrlr                    2 # number of memory chips per memory controller
-gpgpu_memlatency_stat                   14 # track and display latency statistics 0x2 enables MC, 0x4 enables queue logs
-gpgpu_frfcfs_dram_sched_queue_size                   16 # 0 = unlimited (default); # entries per chip
-gpgpu_dram_return_queue_size                  116 # 0 = unlimited (default); # entries per chip
-gpgpu_dram_buswidth                    4 # default = 4 bytes (8 bytes per cycle at DDR)
-gpgpu_dram_burst_length                    8 # Burst length of each DRAM request (default = 4 data bus cycle)
-dram_data_command_freq_ratio                    1 # Frequency ratio between DRAM data bus and command bus (default = 2 times, i.e. DDR)
-gpgpu_dram_timing_opt nbk=16:CCD=2:RRD=6:RCD=12:RAS=28:RP=12:RC=40: CL=12:WL=4:CDLR=5:WR=12:nbkgrp=4:CCDL=3:RTPL=2 # DRAM timing parameters = {nbk:tCCD:tRRD:tRCD:tRAS:tRP:tRC:CL:WL:tCDLR:tWR:nbkgrp:tCCDL:tRTPL}
-rop_latency                          120 # ROP queue latency (default 85)
-dram_latency                         100 # DRAM latency (default 30)
-gpgpu_mem_addr_mapping dramid@8;00000000.00000000.00000000.00000000.0000RRRR.RRRRRRRR.BBBCCCCB.CCSSSSSS # mapping memory address to dram model {dramid@<start bit>;<memory address map>}
-gpgpu_mem_addr_test                    0 # run sweep test to check address mapping for aliased address
-gpgpu_mem_address_mask                    1 # 0 = old addressing mask, 1 = new addressing mask, 2 = new add. mask + flipped bank sel and chip sel bits
-gpuwattch_xml_file  gpuwattch_gtx480.xml # GPUWattch XML file
-power_simulation_enabled                    0 # Turn on power simulator (1=On, 0=Off)
-power_per_cycle_dump                    0 # Dump detailed power output each cycle
-power_trace_enabled                    0 # produce a file for the power trace (1=On, 0=Off)
-power_trace_zlevel                     6 # Compression level of the power trace output log (0=no comp, 9=highest)
-steady_power_levels_enabled                    0 # produce a file for the steady power levels (1=On, 0=Off)
-steady_state_definition                  8:4 # allowed deviation:number of samples
-gpgpu_max_cycle                        0 # terminates gpu simulation early (0 = no limit)
-gpgpu_max_insn                         0 # terminates gpu simulation early (0 = no limit)
-gpgpu_max_cta                          0 # terminates gpu simulation early (0 = no limit)
-gpgpu_runtime_stat                   500 # display runtime statistics such as dram utilization {<freq>:<flag>}
-liveness_message_freq                    1 # Minimum number of seconds between simulation liveness messages (0 = always print)
-gpgpu_flush_l1_cache                    0 # Flush L1 cache at the end of each kernel call
-gpgpu_flush_l2_cache                    0 # Flush L2 cache at the end of each kernel call
-gpgpu_deadlock_detect                    1 # Stop the simulation at deadlock (1=on (default), 0=off)
-gpgpu_ptx_instruction_classification                    0 # if enabled will classify ptx instruction types per kernel (Max 255 kernels now)
-gpgpu_ptx_sim_mode                     0 # Select between Performance (default) or Functional simulation (1)
-gpgpu_clock_domains 700.0:700.0:700.0:924.0 # Clock Domain Frequencies in MhZ {<Core Clock>:<ICNT Clock>:<L2 Clock>:<DRAM Clock>}
-gpgpu_max_concurrent_kernel                    8 # maximum kernels that can run concurrently on GPU
-gpgpu_cflog_interval                    0 # Interval between each snapshot in control flow logger
-visualizer_enabled                     0 # Turn on visualizer output (1=On, 0=Off)
-visualizer_outputfile                 NULL # Specifies the output log file for visualizer
-visualizer_zlevel                      6 # Compression level of the visualizer output log (0=no comp, 9=highest)
-trace_enabled                          0 # Turn on traces
-trace_components                    none # comma seperated list of traces to enable. Complete list found in trace_streams.tup. Default none
-trace_sampling_core                    0 # The core which is printed using CORE_DPRINTF. Default 0
-trace_sampling_memory_partition                   -1 # The memory partition which is printed using MEMPART_DPRINTF. Default -1 (i.e. all)
-enable_ptx_file_line_stats                    1 # Turn on PTX source line statistic profiling. (1 = On)
-ptx_line_stats_filename gpgpu_inst_stats.txt # Output file for PTX source line statistics.
-save_embedded_ptx                      0 # saves ptx files embedded in binary as <n>.ptx
-keep                                   0 # keep intermediate files created by GPGPU-Sim when interfacing with external programs
-gpgpu_ptx_save_converted_ptxplus                    0 # Saved converted ptxplus to a file
-ptx_opcode_latency_int         4,13,4,5,145 # Opcode latencies for integers <ADD,MAX,MUL,MAD,DIV>Default 1,1,19,25,145
-ptx_opcode_latency_fp          4,13,4,5,39 # Opcode latencies for single precision floating points <ADD,MAX,MUL,MAD,DIV>Default 1,1,1,1,30
-ptx_opcode_latency_dp         8,19,8,8,330 # Opcode latencies for double precision floating points <ADD,MAX,MUL,MAD,DIV>Default 8,8,8,8,335
-ptx_opcode_initiation_int            1,2,2,1,8 # Opcode initiation intervals for integers <ADD,MAX,MUL,MAD,DIV>Default 1,1,4,4,32
-ptx_opcode_initiation_fp            1,2,1,1,4 # Opcode initiation intervals for single precision floating points <ADD,MAX,MUL,MAD,DIV>Default 1,1,1,1,5
-ptx_opcode_initiation_dp         8,16,8,8,130 # Opcode initiation intervals for double precision floating points <ADD,MAX,MUL,MAD,DIV>Default 8,8,8,8,130
DRAM Timing Options:
nbk                                    16 # number of banks
CCD                                     2 # column to column delay
RRD                                     6 # minimal delay between activation of rows in different banks
RCD                                    12 # row to column delay
RAS                                    28 # time needed to activate row
RP                                     12 # time needed to precharge (deactivate) row
RC                                     40 # row cycle time
CDLR                                    5 # switching from write to read (changes tWTR)
WR                                     12 # last data-in to row precharge
CL                                     12 # CAS latency
WL                                      4 # Write latency
nbkgrp                                  4 # number of bank groups
CCDL                                    3 # column to column delay between accesses to different bank groups
RTPL                                    2 # read to precharge delay between accesses to different bank groups
Total number of memory sub partition = 12
addr_dec_mask[CHIP]  = 0000000000000000 	high:64 low:0
addr_dec_mask[BK]    = 000000000000e100 	high:16 low:8
addr_dec_mask[ROW]   = 000000000fff0000 	high:28 low:16
addr_dec_mask[COL]   = 0000000000001eff 	high:13 low:0
addr_dec_mask[BURST] = 000000000000003f 	high:6 low:0
sub_partition_id_mask = 0000000000000100
GPGPU-Sim uArch: clock freqs: 700000000.000000:700000000.000000:700000000.000000:924000000.000000
GPGPU-Sim uArch: clock periods: 0.00000000142857142857:0.00000000142857142857:0.00000000142857142857:0.00000000108225108225
*** Initializing Memory Statistics ***
GPGPU-Sim uArch: interconnect node map (shaderID+MemID to icntID)
GPGPU-Sim uArch: Memory nodes ID start from index: 15
GPGPU-Sim uArch:    0   1   2   3   4
GPGPU-Sim uArch:    5   6   7   8   9
GPGPU-Sim uArch:   10  11  12  13  14
GPGPU-Sim uArch:   15  16  17  18  19
GPGPU-Sim uArch:   20  21  22  23  24
GPGPU-Sim uArch:   25  26
GPGPU-Sim uArch: interconnect node reverse map (icntID to shaderID+MemID)
GPGPU-Sim uArch: Memory nodes start from ID: 15
GPGPU-Sim uArch:    0   1   2   3   4
GPGPU-Sim uArch:    5   6   7   8   9
GPGPU-Sim uArch:   10  11  12  13  14
GPGPU-Sim uArch:   15  16  17  18  19
GPGPU-Sim uArch:   20  21  22  23  24
GPGPU-Sim uArch:   25  26
c498d9f32ab5dd92351405d48e0f6df7  /sciclone/data20/adwait/applications/benchmarks/CUDA/BFS/gpgpu_ptx_sim__BFS
GPGPU-Sim uArch: performance model initialization complete.
GPGPU-Sim PTX: __cudaRegisterFatBinary, fat_cubin_handle = 1, filename=bfs.cu
self exe links to: /sciclone/data20/adwait/applications/benchmarks/CUDA/BFS/gpgpu_ptx_sim__BFS
Running md5sum using "md5sum /sciclone/data20/adwait/applications/benchmarks/CUDA/BFS/gpgpu_ptx_sim__BFS "
Parsing file _cuobjdump_complete_output_PuGIGa
######### cuobjdump parser ########
## Adding new section ELF
Adding arch: sm_20
Adding identifier: bfs.cu
## Adding new section PTX
Adding ptx filename: _cuobjdump_1.ptx
Adding arch: sm_20
Adding identifier: bfs.cu
Done parsing!!!
GPGPU-Sim PTX: __cudaRegisterFunction _Z6KernelP4NodePiPbS2_S1_S2_i : hostFun 0x0x405636, fat_cubin_handle = 1
GPGPU-Sim PTX: instruction assembly for function '_Z6KernelP4NodePiPbS2_S1_S2_i'...   done.
GPGPU-Sim PTX: finding reconvergence points for '_Z6KernelP4NodePiPbS2_S1_S2_i'...
GPGPU-Sim PTX: Finding dominators for '_Z6KernelP4NodePiPbS2_S1_S2_i'...
GPGPU-Sim PTX: Finding immediate dominators for '_Z6KernelP4NodePiPbS2_S1_S2_i'...
GPGPU-Sim PTX: Finding postdominators for '_Z6KernelP4NodePiPbS2_S1_S2_i'...
GPGPU-Sim PTX: Finding immediate postdominators for '_Z6KernelP4NodePiPbS2_S1_S2_i'...
GPGPU-Sim PTX: pre-decoding instructions for '_Z6KernelP4NodePiPbS2_S1_S2_i'...
GPGPU-Sim PTX: reconvergence points for _Z6KernelP4NodePiPbS2_S1_S2_i...
GPGPU-Sim PTX:  1 (potential) branch divergence @  PC=0x030 (_1.ptx:72) @%p1 bra $Lt_0_5122;
GPGPU-Sim PTX:    immediate post dominator      @  PC=0x1e8 (_1.ptx:141) exit;
GPGPU-Sim PTX:  2 (potential) branch divergence @  PC=0x068 (_1.ptx:79) @%p2 bra $Lt_0_5122;
GPGPU-Sim PTX:    immediate post dominator      @  PC=0x1e8 (_1.ptx:141) exit;
GPGPU-Sim PTX:  3 (potential) branch divergence @  PC=0x0e0 (_1.ptx:97) @%p3 bra $Lt_0_5122;
GPGPU-Sim PTX:    immediate post dominator      @  PC=0x1e8 (_1.ptx:141) exit;
GPGPU-Sim PTX:  4 (potential) branch divergence @  PC=0x138 (_1.ptx:111) @%p4 bra $Lt_0_4354;
GPGPU-Sim PTX:    immediate post dominator      @  PC=0x1c8 (_1.ptx:134) add.s32 %r11, %r11, 1;
GPGPU-Sim PTX:  5 (potential) branch divergence @  PC=0x1e0 (_1.ptx:137) @%p5 bra $Lt_0_4098;
GPGPU-Sim PTX:    immediate post dominator      @  PC=0x1e8 (_1.ptx:141) exit;
GPGPU-Sim PTX: ... end of reconvergence points for _Z6KernelP4NodePiPbS2_S1_S2_i
GPGPU-Sim PTX: ... done pre-decoding instructions for '_Z6KernelP4NodePiPbS2_S1_S2_i'.
GPGPU-Sim PTX: finished parsing EMBEDDED .ptx file _1.ptx
Adding _cuobjdump_1.ptx with cubin handle 1
GPGPU-Sim PTX: extracting embedded .ptx to temporary file "_ptx_lLQg3c"
Running: cat _ptx_lLQg3c | sed 's/.version 1.5/.version 1.4/' | sed 's/, texmode_independent//' | sed 's/\(\.extern \.const\[1\] .b8 \w\+\)\[\]/\1\[1\]/' | sed 's/const\[.\]/const\[0\]/g' > _ptx2_F5shXf
GPGPU-Sim PTX: generating ptxinfo using "$CUDA_INSTALL_PATH/bin/ptxas --gpu-name=sm_20 -v _ptx2_F5shXf --output-file  /dev/null 2> _ptx_lLQg3cinfo"
GPGPU-Sim PTX: Kernel '_Z6KernelP4NodePiPbS2_S1_S2_i' : regs=18, lmem=0, smem=0, cmem=84
GPGPU-Sim PTX: removing ptxinfo using "rm -f _ptx_lLQg3c _ptx2_F5shXf _ptx_lLQg3cinfo"
GPGPU-Sim PTX: loading globals with explicit initializers... 
GPGPU-Sim PTX: finished loading globals (0 bytes total).
GPGPU-Sim PTX: loading constants with explicit initializers...  done.
Reading File
Input file: ./data/graph65536.txt
Read File
Copied Everything to GPU memory

GPGPU-Sim PTX: cudaLaunch for 0x0x405636 (mode=performance simulation) on stream 0
GPGPU-Sim PTX: pushing kernel '_Z6KernelP4NodePiPbS2_S1_S2_i' to stream 0, gridDim= (256,1,1) blockDim = (256,1,1) 
kernel '_Z6KernelP4NodePiPbS2_S1_S2_i' transfer to GPU hardware scheduler
GPGPU-Sim uArch: Shader 1 bind to kernel 1 '_Z6KernelP4NodePiPbS2_S1_S2_i'
GPGPU-Sim uArch: CTA/core = 6, limited by: threads regs
GPGPU-Sim uArch: core:  1, cta: 0 initialized @(1,0)
GPGPU-Sim uArch: Shader 2 bind to kernel 1 '_Z6KernelP4NodePiPbS2_S1_S2_i'
GPGPU-Sim uArch: core:  2, cta: 0 initialized @(1,0)
GPGPU-Sim uArch: Shader 3 bind to kernel 1 '_Z6KernelP4NodePiPbS2_S1_S2_i'
GPGPU-Sim uArch: core:  3, cta: 0 initialized @(1,0)
GPGPU-Sim uArch: Shader 4 bind to kernel 1 '_Z6KernelP4NodePiPbS2_S1_S2_i'
GPGPU-Sim uArch: core:  4, cta: 0 initialized @(1,0)
GPGPU-Sim uArch: Shader 5 bind to kernel 1 '_Z6KernelP4NodePiPbS2_S1_S2_i'
GPGPU-Sim uArch: core:  5, cta: 0 initialized @(1,0)
GPGPU-Sim uArch: Shader 6 bind to kernel 1 '_Z6KernelP4NodePiPbS2_S1_S2_i'
GPGPU-Sim uArch: core:  6, cta: 0 initialized @(1,0)
GPGPU-Sim uArch: Shader 7 bind to kernel 1 '_Z6KernelP4NodePiPbS2_S1_S2_i'
GPGPU-Sim uArch: core:  7, cta: 0 initialized @(1,0)
GPGPU-Sim uArch: Shader 8 bind to kernel 1 '_Z6KernelP4NodePiPbS2_S1_S2_i'
GPGPU-Sim uArch: core:  8, cta: 0 initialized @(1,0)
GPGPU-Sim uArch: Shader 9 bind to kernel 1 '_Z6KernelP4NodePiPbS2_S1_S2_i'
GPGPU-Sim uArch: core:  9, cta: 0 initialized @(1,0)
GPGPU-Sim uArch: Shader 10 bind to kernel 1 '_Z6KernelP4NodePiPbS2_S1_S2_i'
GPGPU-Sim uArch: core: 10, cta: 0 initialized @(1,0)
GPGPU-Sim uArch: Shader 11 bind to kernel 1 '_Z6KernelP4NodePiPbS2_S1_S2_i'
GPGPU-Sim uArch: core: 11, cta: 0 initialized @(1,0)
GPGPU-Sim uArch: Shader 12 bind to kernel 1 '_Z6KernelP4NodePiPbS2_S1_S2_i'
GPGPU-Sim uArch: core: 12, cta: 0 initialized @(1,0)
GPGPU-Sim uArch: Shader 13 bind to kernel 1 '_Z6KernelP4NodePiPbS2_S1_S2_i'
GPGPU-Sim uArch: core: 13, cta: 0 initialized @(1,0)
GPGPU-Sim uArch: Shader 14 bind to kernel 1 '_Z6KernelP4NodePiPbS2_S1_S2_i'
GPGPU-Sim uArch: core: 14, cta: 0 initialized @(1,0)
GPGPU-Sim uArch: Shader 0 bind to kernel 1 '_Z6KernelP4NodePiPbS2_S1_S2_i'
GPGPU-Sim uArch: core:  0, cta: 0 initialized @(1,0)
GPGPU-Sim uArch: core:  1, cta: 1 initialized @(2,0)
GPGPU-Sim uArch: core:  2, cta: 1 initialized @(2,0)
GPGPU-Sim uArch: core:  3, cta: 1 initialized @(2,0)
GPGPU-Sim uArch: core:  4, cta: 1 initialized @(2,0)
GPGPU-Sim uArch: core:  5, cta: 1 initialized @(2,0)
GPGPU-Sim uArch: core:  6, cta: 1 initialized @(2,0)
GPGPU-Sim uArch: core:  7, cta: 1 initialized @(2,0)
GPGPU-Sim uArch: core:  8, cta: 1 initialized @(2,0)
GPGPU-Sim uArch: core:  9, cta: 1 initialized @(2,0)
GPGPU-Sim uArch: core: 10, cta: 1 initialized @(2,0)
GPGPU-Sim uArch: core: 11, cta: 1 initialized @(2,0)
GPGPU-Sim uArch: core: 12, cta: 1 initialized @(2,0)
GPGPU-Sim uArch: core: 13, cta: 1 initialized @(2,0)
GPGPU-Sim uArch: core: 14, cta: 1 initialized @(2,0)
GPGPU-Sim uArch: core:  0, cta: 1 initialized @(2,0)
GPGPU-Sim uArch: core:  1, cta: 2 initialized @(3,0)
GPGPU-Sim uArch: core:  2, cta: 2 initialized @(3,0)
GPGPU-Sim uArch: core:  3, cta: 2 initialized @(3,0)
GPGPU-Sim uArch: core:  4, cta: 2 initialized @(3,0)
GPGPU-Sim uArch: core:  5, cta: 2 initialized @(3,0)
GPGPU-Sim uArch: core:  6, cta: 2 initialized @(3,0)
GPGPU-Sim uArch: core:  7, cta: 2 initialized @(3,0)
GPGPU-Sim uArch: core:  8, cta: 2 initialized @(3,0)
GPGPU-Sim uArch: core:  9, cta: 2 initialized @(3,0)
GPGPU-Sim uArch: core: 10, cta: 2 initialized @(3,0)
GPGPU-Sim uArch: core: 11, cta: 2 initialized @(3,0)
GPGPU-Sim uArch: core: 12, cta: 2 initialized @(3,0)
GPGPU-Sim uArch: core: 13, cta: 2 initialized @(3,0)
GPGPU-Sim uArch: core: 14, cta: 2 initialized @(3,0)
GPGPU-Sim uArch: core:  0, cta: 2 initialized @(3,0)
GPGPU-Sim uArch: core:  1, cta: 3 initialized @(4,0)
GPGPU-Sim uArch: core:  2, cta: 3 initialized @(4,0)
GPGPU-Sim uArch: core:  3, cta: 3 initialized @(4,0)
GPGPU-Sim uArch: core:  4, cta: 3 initialized @(4,0)
GPGPU-Sim uArch: core:  5, cta: 3 initialized @(4,0)
GPGPU-Sim uArch: core:  6, cta: 3 initialized @(4,0)
GPGPU-Sim uArch: core:  7, cta: 3 initialized @(4,0)
GPGPU-Sim uArch: core:  8, cta: 3 initialized @(4,0)
GPGPU-Sim uArch: core:  9, cta: 3 initialized @(4,0)
GPGPU-Sim uArch: core: 10, cta: 3 initialized @(4,0)
GPGPU-Sim uArch: core: 11, cta: 3 initialized @(4,0)
GPGPU-Sim uArch: core: 12, cta: 3 initialized @(4,0)
GPGPU-Sim uArch: core: 13, cta: 3 initialized @(4,0)
GPGPU-Sim uArch: core: 14, cta: 3 initialized @(4,0)
GPGPU-Sim uArch: core:  0, cta: 3 initialized @(4,0)
GPGPU-Sim uArch: core:  1, cta: 4 initialized @(5,0)
GPGPU-Sim uArch: core:  2, cta: 4 initialized @(5,0)
GPGPU-Sim uArch: core:  3, cta: 4 initialized @(5,0)
GPGPU-Sim uArch: core:  4, cta: 4 initialized @(5,0)
GPGPU-Sim uArch: core:  5, cta: 4 initialized @(5,0)
GPGPU-Sim uArch: core:  6, cta: 4 initialized @(5,0)
GPGPU-Sim uArch: core:  7, cta: 4 initialized @(5,0)
GPGPU-Sim uArch: core:  8, cta: 4 initialized @(5,0)
GPGPU-Sim uArch: core:  9, cta: 4 initialized @(5,0)
GPGPU-Sim uArch: core: 10, cta: 4 initialized @(5,0)
GPGPU-Sim uArch: core: 11, cta: 4 initialized @(5,0)
GPGPU-Sim uArch: core: 12, cta: 4 initialized @(5,0)
GPGPU-Sim uArch: core: 13, cta: 4 initialized @(5,0)
GPGPU-Sim uArch: core: 14, cta: 4 initialized @(5,0)
GPGPU-Sim uArch: core:  0, cta: 4 initialized @(5,0)
GPGPU-Sim uArch: core:  1, cta: 5 initialized @(6,0)
GPGPU-Sim uArch: core:  2, cta: 5 initialized @(6,0)
GPGPU-Sim uArch: core:  3, cta: 5 initialized @(6,0)
GPGPU-Sim uArch: core:  4, cta: 5 initialized @(6,0)
GPGPU-Sim uArch: core:  5, cta: 5 initialized @(6,0)
GPGPU-Sim uArch: core:  6, cta: 5 initialized @(6,0)
GPGPU-Sim uArch: core:  7, cta: 5 initialized @(6,0)
GPGPU-Sim uArch: core:  8, cta: 5 initialized @(6,0)
GPGPU-Sim uArch: core:  9, cta: 5 initialized @(6,0)
GPGPU-Sim uArch: core: 10, cta: 5 initialized @(6,0)
GPGPU-Sim uArch: core: 11, cta: 5 initialized @(6,0)
GPGPU-Sim uArch: core: 12, cta: 5 initialized @(6,0)
GPGPU-Sim uArch: core: 13, cta: 5 initialized @(6,0)
GPGPU-Sim uArch: core: 14, cta: 5 initialized @(6,0)
GPGPU-Sim uArch: core:  0, cta: 5 initialized @(6,0)
GPGPU-Sim PTX: 100000 instructions simulated : ctaid=(7,0,0) tid=(31,0,0)
GPGPU-Sim uArch: cycles simulated: 500  inst.: 92160 (ipc=184.3) sim_rate=30720 (inst/sec) elapsed = 0:0:00:03 / Fri Mar  4 03:51:56 2016
GPGPU-Sim PTX: 200000 instructions simulated : ctaid=(26,0,0) tid=(255,0,0)
GPGPU-Sim PTX: 300000 instructions simulated : ctaid=(34,0,0) tid=(253,0,0)
GPGPU-Sim uArch: Shader 1 finished CTA #1 (1243,0), 5 CTAs running
GPGPU-Sim uArch: core:  1, cta: 1 initialized @(1244,0)
GPGPU-Sim uArch: Shader 3 finished CTA #0 (1262,0), 5 CTAs running
GPGPU-Sim uArch: Shader 3 finished CTA #1 (1262,0), 4 CTAs running
GPGPU-Sim uArch: Shader 3 finished CTA #2 (1262,0), 3 CTAs running
GPGPU-Sim uArch: Shader 3 finished CTA #3 (1262,0), 2 CTAs running
GPGPU-Sim uArch: core:  3, cta: 0 initialized @(1263,0)
GPGPU-Sim uArch: Shader 4 finished CTA #0 (1263,0), 5 CTAs running
GPGPU-Sim uArch: Shader 4 finished CTA #1 (1263,0), 4 CTAs running
GPGPU-Sim uArch: Shader 4 finished CTA #2 (1263,0), 3 CTAs running
GPGPU-Sim uArch: core:  4, cta: 0 initialized @(1264,0)
GPGPU-Sim uArch: core:  3, cta: 1 initialized @(1264,0)
GPGPU-Sim uArch: core:  4, cta: 1 initialized @(1265,0)
GPGPU-Sim uArch: core:  3, cta: 2 initialized @(1265,0)
GPGPU-Sim uArch: Shader 0 finished CTA #0 (1265,0), 5 CTAs running
GPGPU-Sim uArch: Shader 0 finished CTA #1 (1265,0), 4 CTAs running
GPGPU-Sim uArch: Shader 0 finished CTA #2 (1265,0), 3 CTAs running
GPGPU-Sim uArch: core:  4, cta: 2 initialized @(1266,0)
GPGPU-Sim uArch: core:  0, cta: 0 initialized @(1266,0)
GPGPU-Sim uArch: core:  3, cta: 3 initialized @(1266,0)
GPGPU-Sim uArch: core:  0, cta: 1 initialized @(1267,0)
GPGPU-Sim uArch: Shader 1 finished CTA #2 (1267,0), 5 CTAs running
GPGPU-Sim uArch: Shader 1 finished CTA #3 (1267,0), 4 CTAs running
GPGPU-Sim uArch: Shader 1 finished CTA #4 (1267,0), 3 CTAs running
GPGPU-Sim uArch: Shader 1 finished CTA #5 (1267,0), 2 CTAs running
GPGPU-Sim uArch: core:  1, cta: 2 initialized @(1268,0)
GPGPU-Sim uArch: core:  0, cta: 2 initialized @(1268,0)
GPGPU-Sim uArch: core:  1, cta: 3 initialized @(1269,0)
GPGPU-Sim uArch: core:  1, cta: 4 initialized @(1270,0)
GPGPU-Sim uArch: core:  1, cta: 5 initialized @(1271,0)
GPGPU-Sim uArch: Shader 2 finished CTA #0 (1279,0), 5 CTAs running
GPGPU-Sim uArch: Shader 2 finished CTA #1 (1279,0), 4 CTAs running
GPGPU-Sim uArch: Shader 2 finished CTA #2 (1279,0), 3 CTAs running
GPGPU-Sim uArch: Shader 2 finished CTA #3 (1279,0), 2 CTAs running
GPGPU-Sim uArch: core:  2, cta: 0 initialized @(1280,0)
GPGPU-Sim uArch: Shader 5 finished CTA #0 (1280,0), 5 CTAs running
GPGPU-Sim uArch: Shader 5 finished CTA #1 (1280,0), 4 CTAs running
GPGPU-Sim uArch: Shader 5 finished CTA #2 (1280,0), 3 CTAs running
GPGPU-Sim uArch: Shader 5 finished CTA #3 (1280,0), 2 CTAs running
GPGPU-Sim uArch: core:  5, cta: 0 initialized @(1281,0)
GPGPU-Sim uArch: core:  2, cta: 1 initialized @(1281,0)
GPGPU-Sim uArch: core:  5, cta: 1 initialized @(1282,0)
GPGPU-Sim uArch: core:  2, cta: 2 initialized @(1282,0)
GPGPU-Sim uArch: core:  5, cta: 2 initialized @(1283,0)
GPGPU-Sim uArch: core:  2, cta: 3 initialized @(1283,0)
GPGPU-Sim uArch: core:  5, cta: 3 initialized @(1284,0)
GPGPU-Sim uArch: Shader 6 finished CTA #0 (1285,0), 5 CTAs running
GPGPU-Sim uArch: Shader 6 finished CTA #1 (1285,0), 4 CTAs running
GPGPU-Sim uArch: Shader 6 finished CTA #2 (1285,0), 3 CTAs running
GPGPU-Sim uArch: Shader 6 finished CTA #3 (1285,0), 2 CTAs running
GPGPU-Sim uArch: core:  6, cta: 0 initialized @(1286,0)
GPGPU-Sim uArch: Shader 7 finished CTA #0 (1286,0), 5 CTAs running
GPGPU-Sim uArch: Shader 7 finished CTA #1 (1286,0), 4 CTAs running
GPGPU-Sim uArch: Shader 7 finished CTA #2 (1286,0), 3 CTAs running
GPGPU-Sim uArch: core:  7, cta: 0 initialized @(1287,0)
GPGPU-Sim uArch: core:  6, cta: 1 initialized @(1287,0)
GPGPU-Sim uArch: core:  7, cta: 1 initialized @(1288,0)
GPGPU-Sim uArch: core:  6, cta: 2 initialized @(1288,0)
GPGPU-Sim uArch: core:  7, cta: 2 initialized @(1289,0)
GPGPU-Sim uArch: core:  6, cta: 3 initialized @(1289,0)
GPGPU-Sim uArch: Shader 0 finished CTA #3 (1294,0), 5 CTAs running
GPGPU-Sim uArch: Shader 0 finished CTA #4 (1294,0), 4 CTAs running
GPGPU-Sim uArch: Shader 0 finished CTA #5 (1294,0), 3 CTAs running
GPGPU-Sim uArch: core:  0, cta: 3 initialized @(1295,0)
GPGPU-Sim uArch: core:  0, cta: 4 initialized @(1296,0)
GPGPU-Sim uArch: Shader 3 finished CTA #4 (1296,0), 5 CTAs running
GPGPU-Sim uArch: Shader 3 finished CTA #5 (1296,0), 4 CTAs running
GPGPU-Sim uArch: core:  3, cta: 4 initialized @(1297,0)
GPGPU-Sim uArch: core:  0, cta: 5 initialized @(1297,0)
GPGPU-Sim uArch: Shader 9 finished CTA #0 (1297,0), 5 CTAs running
GPGPU-Sim uArch: Shader 9 finished CTA #1 (1297,0), 4 CTAs running
GPGPU-Sim uArch: core:  3, cta: 5 initialized @(1298,0)
GPGPU-Sim uArch: core:  9, cta: 0 initialized @(1298,0)
GPGPU-Sim uArch: core:  9, cta: 1 initialized @(1299,0)
GPGPU-Sim uArch: Shader 4 finished CTA #3 (1300,0), 5 CTAs running
GPGPU-Sim uArch: Shader 4 finished CTA #4 (1300,0), 4 CTAs running
GPGPU-Sim uArch: Shader 4 finished CTA #5 (1300,0), 3 CTAs running
GPGPU-Sim uArch: core:  4, cta: 3 initialized @(1301,0)
GPGPU-Sim uArch: Shader 8 finished CTA #0 (1301,0), 5 CTAs running
GPGPU-Sim uArch: Shader 8 finished CTA #1 (1301,0), 4 CTAs running
GPGPU-Sim uArch: Shader 8 finished CTA #2 (1301,0), 3 CTAs running
GPGPU-Sim uArch: Shader 8 finished CTA #3 (1301,0), 2 CTAs running
GPGPU-Sim uArch: core:  8, cta: 0 initialized @(1302,0)
GPGPU-Sim uArch: core:  4, cta: 4 initialized @(1302,0)
GPGPU-Sim uArch: core:  8, cta: 1 initialized @(1303,0)
GPGPU-Sim uArch: core:  4, cta: 5 initialized @(1303,0)
GPGPU-Sim uArch: core:  8, cta: 2 initialized @(1304,0)
GPGPU-Sim uArch: core:  8, cta: 3 initialized @(1305,0)
GPGPU-Sim uArch: Shader 11 finished CTA #0 (1307,0), 5 CTAs running
GPGPU-Sim uArch: Shader 11 finished CTA #1 (1307,0), 4 CTAs running
GPGPU-Sim uArch: Shader 11 finished CTA #2 (1307,0), 3 CTAs running
GPGPU-Sim uArch: core: 11, cta: 0 initialized @(1308,0)
GPGPU-Sim uArch: core: 11, cta: 1 initialized @(1309,0)
GPGPU-Sim uArch: core: 11, cta: 2 initialized @(1310,0)
GPGPU-Sim uArch: Shader 13 finished CTA #0 (1310,0), 5 CTAs running
GPGPU-Sim uArch: Shader 13 finished CTA #1 (1310,0), 4 CTAs running
GPGPU-Sim uArch: core: 13, cta: 0 initialized @(1311,0)
GPGPU-Sim uArch: core: 13, cta: 1 initialized @(1312,0)
GPGPU-Sim uArch: Shader 5 finished CTA #4 (1314,0), 5 CTAs running
GPGPU-Sim uArch: Shader 5 finished CTA #5 (1314,0), 4 CTAs running
GPGPU-Sim uArch: Shader 13 finished CTA #3 (1314,0), 5 CTAs running
GPGPU-Sim uArch: core:  5, cta: 4 initialized @(1315,0)
GPGPU-Sim uArch: core: 13, cta: 3 initialized @(1315,0)
GPGPU-Sim uArch: core:  5, cta: 5 initialized @(1316,0)
GPGPU-Sim uArch: Shader 2 finished CTA #4 (1320,0), 5 CTAs running
GPGPU-Sim uArch: Shader 2 finished CTA #5 (1320,0), 4 CTAs running
GPGPU-Sim uArch: core:  2, cta: 4 initialized @(1321,0)
GPGPU-Sim uArch: core:  2, cta: 5 initialized @(1322,0)
GPGPU-Sim uArch: Shader 7 finished CTA #3 (1324,0), 5 CTAs running
GPGPU-Sim uArch: Shader 7 finished CTA #4 (1324,0), 4 CTAs running
GPGPU-Sim uArch: Shader 7 finished CTA #5 (1324,0), 3 CTAs running
GPGPU-Sim uArch: core:  7, cta: 3 initialized @(1325,0)
GPGPU-Sim uArch: core:  7, cta: 4 initialized @(1326,0)
GPGPU-Sim uArch: Shader 6 finished CTA #4 (1326,0), 5 CTAs running
GPGPU-Sim uArch: Shader 6 finished CTA #5 (1326,0), 4 CTAs running
GPGPU-Sim uArch: core:  6, cta: 4 initialized @(1327,0)
GPGPU-Sim uArch: core:  7, cta: 5 initialized @(1327,0)
GPGPU-Sim uArch: core:  6, cta: 5 initialized @(1328,0)
GPGPU-Sim uArch: Shader 9 finished CTA #2 (1328,0), 5 CTAs running
GPGPU-Sim uArch: Shader 9 finished CTA #3 (1328,0), 4 CTAs running
GPGPU-Sim uArch: Shader 9 finished CTA #4 (1328,0), 3 CTAs running
GPGPU-Sim uArch: Shader 9 finished CTA #5 (1328,0), 2 CTAs running
GPGPU-Sim uArch: core:  9, cta: 2 initialized @(1329,0)
GPGPU-Sim uArch: Shader 14 finished CTA #0 (1329,0), 5 CTAs running
GPGPU-Sim uArch: Shader 14 finished CTA #1 (1329,0), 4 CTAs running
GPGPU-Sim uArch: Shader 14 finished CTA #2 (1329,0), 3 CTAs running
GPGPU-Sim uArch: Shader 14 finished CTA #3 (1329,0), 2 CTAs running
GPGPU-Sim uArch: core: 14, cta: 0 initialized @(1330,0)
GPGPU-Sim uArch: core:  9, cta: 3 initialized @(1330,0)
GPGPU-Sim uArch: core: 14, cta: 1 initialized @(1331,0)
GPGPU-Sim uArch: core:  9, cta: 4 initialized @(1331,0)
GPGPU-Sim uArch: core: 14, cta: 2 initialized @(1332,0)
GPGPU-Sim uArch: core:  9, cta: 5 initialized @(1332,0)
GPGPU-Sim uArch: core: 14, cta: 3 initialized @(1333,0)
GPGPU-Sim uArch: Shader 10 finished CTA #0 (1333,0), 5 CTAs running
GPGPU-Sim uArch: Shader 10 finished CTA #1 (1333,0), 4 CTAs running
GPGPU-Sim uArch: Shader 10 finished CTA #2 (1333,0), 3 CTAs running
GPGPU-Sim uArch: Shader 10 finished CTA #3 (1333,0), 2 CTAs running
GPGPU-Sim uArch: Shader 12 finished CTA #0 (1333,0), 5 CTAs running
GPGPU-Sim uArch: Shader 12 finished CTA #1 (1333,0), 4 CTAs running
GPGPU-Sim uArch: Shader 12 finished CTA #2 (1333,0), 3 CTAs running
GPGPU-Sim uArch: Shader 12 finished CTA #3 (1333,0), 2 CTAs running
GPGPU-Sim uArch: core: 10, cta: 0 initialized @(1334,0)
GPGPU-Sim uArch: core: 12, cta: 0 initialized @(1334,0)
GPGPU-Sim uArch: core: 10, cta: 1 initialized @(1335,0)
GPGPU-Sim uArch: core: 12, cta: 1 initialized @(1335,0)
GPGPU-Sim uArch: core: 10, cta: 2 initialized @(1336,0)
GPGPU-Sim uArch: core: 12, cta: 2 initialized @(1336,0)
GPGPU-Sim uArch: core: 10, cta: 3 initialized @(1337,0)
GPGPU-Sim uArch: core: 12, cta: 3 initialized @(1337,0)
GPGPU-Sim uArch: Shader 8 finished CTA #4 (1338,0), 5 CTAs running
GPGPU-Sim uArch: Shader 8 finished CTA #5 (1338,0), 4 CTAs running
GPGPU-Sim uArch: core:  8, cta: 4 initialized @(1339,0)
GPGPU-Sim uArch: core:  8, cta: 5 initialized @(1340,0)
GPGPU-Sim uArch: Shader 13 finished CTA #2 (1340,0), 5 CTAs running
GPGPU-Sim uArch: core: 13, cta: 2 initialized @(1341,0)
GPGPU-Sim uArch: Shader 11 finished CTA #3 (1342,0), 5 CTAs running
GPGPU-Sim uArch: Shader 11 finished CTA #4 (1342,0), 4 CTAs running
GPGPU-Sim uArch: Shader 11 finished CTA #5 (1342,0), 3 CTAs running
GPGPU-Sim uArch: core: 11, cta: 3 initialized @(1343,0)
GPGPU-Sim uArch: core: 11, cta: 4 initialized @(1344,0)
GPGPU-Sim uArch: core: 11, cta: 5 initialized @(1345,0)
GPGPU-Sim uArch: Shader 13 finished CTA #4 (1348,0), 5 CTAs running
GPGPU-Sim uArch: Shader 13 finished CTA #5 (1348,0), 4 CTAs running
GPGPU-Sim uArch: core: 13, cta: 4 initialized @(1349,0)
GPGPU-Sim uArch: core: 13, cta: 5 initialized @(1350,0)
GPGPU-Sim uArch: Shader 14 finished CTA #4 (1362,0), 5 CTAs running
GPGPU-Sim uArch: Shader 14 finished CTA #5 (1362,0), 4 CTAs running
GPGPU-Sim uArch: core: 14, cta: 4 initialized @(1363,0)
GPGPU-Sim uArch: core: 14, cta: 5 initialized @(1364,0)
GPGPU-Sim PTX: 400000 instructions simulated : ctaid=(142,0,0) tid=(117,0,0)
GPGPU-Sim uArch: Shader 10 finished CTA #4 (1368,0), 5 CTAs running
GPGPU-Sim uArch: Shader 10 finished CTA #5 (1368,0), 4 CTAs running
GPGPU-Sim uArch: core: 10, cta: 4 initialized @(1369,0)
GPGPU-Sim uArch: core: 10, cta: 5 initialized @(1370,0)
GPGPU-Sim uArch: Shader 12 finished CTA #4 (1374,0), 5 CTAs running
GPGPU-Sim uArch: Shader 12 finished CTA #5 (1374,0), 4 CTAs running
GPGPU-Sim uArch: core: 12, cta: 4 initialized @(1375,0)
GPGPU-Sim uArch: core: 12, cta: 5 initialized @(1376,0)
GPGPU-Sim PTX: 500000 instructions simulated : ctaid=(106,0,0) tid=(213,0,0)
GPGPU-Sim uArch: cycles simulated: 1500  inst.: 472936 (ipc=315.3) sim_rate=118234 (inst/sec) elapsed = 0:0:00:04 / Fri Mar  4 03:51:57 2016
GPGPU-Sim PTX: 600000 instructions simulated : ctaid=(165,0,0) tid=(181,0,0)
GPGPU-Sim uArch: Shader 1 finished CTA #1 (1734,0), 5 CTAs running
GPGPU-Sim uArch: core:  1, cta: 1 initialized @(1735,0)
GPGPU-Sim uArch: Shader 3 finished CTA #0 (1752,0), 5 CTAs running
GPGPU-Sim uArch: core:  3, cta: 0 initialized @(1753,0)
GPGPU-Sim uArch: Shader 1 finished CTA #2 (1754,0), 5 CTAs running
GPGPU-Sim uArch: core:  1, cta: 2 initialized @(1755,0)
GPGPU-Sim uArch: Shader 0 finished CTA #0 (1759,0), 5 CTAs running
GPGPU-Sim uArch: core:  0, cta: 0 initialized @(1760,0)
GPGPU-Sim uArch: Shader 4 finished CTA #0 (1763,0), 5 CTAs running
GPGPU-Sim uArch: core:  4, cta: 0 initialized @(1764,0)
GPGPU-Sim uArch: Shader 1 finished CTA #3 (1776,0), 5 CTAs running
GPGPU-Sim uArch: core:  1, cta: 3 initialized @(1777,0)
GPGPU-Sim uArch: Shader 5 finished CTA #0 (1784,0), 5 CTAs running
GPGPU-Sim uArch: Shader 5 finished CTA #1 (1784,0), 4 CTAs running
GPGPU-Sim uArch: core:  5, cta: 0 initialized @(1785,0)
GPGPU-Sim uArch: core:  5, cta: 1 initialized @(1786,0)
GPGPU-Sim uArch: Shader 0 finished CTA #1 (1793,0), 5 CTAs running
GPGPU-Sim uArch: core:  0, cta: 1 initialized @(1794,0)
GPGPU-Sim uArch: Shader 4 finished CTA #1 (1796,0), 5 CTAs running
GPGPU-Sim uArch: core:  4, cta: 1 initialized @(1797,0)
GPGPU-Sim uArch: Shader 0 finished CTA #2 (1809,0), 5 CTAs running
GPGPU-Sim uArch: Shader 7 finished CTA #0 (1809,0), 5 CTAs running
GPGPU-Sim uArch: core:  7, cta: 0 initialized @(1810,0)
GPGPU-Sim uArch: core:  0, cta: 2 initialized @(1810,0)
GPGPU-Sim uArch: Shader 2 finished CTA #0 (1811,0), 5 CTAs running
GPGPU-Sim uArch: core:  2, cta: 0 initialized @(1812,0)
GPGPU-Sim uArch: Shader 3 finished CTA #1 (1812,0), 5 CTAs running
GPGPU-Sim uArch: Shader 3 finished CTA #2 (1812,0), 4 CTAs running
GPGPU-Sim uArch: Shader 3 finished CTA #3 (1812,0), 3 CTAs running
GPGPU-Sim uArch: Shader 4 finished CTA #2 (1812,0), 5 CTAs running
GPGPU-Sim uArch: core:  3, cta: 1 initialized @(1813,0)
GPGPU-Sim uArch: core:  4, cta: 2 initialized @(1813,0)
GPGPU-Sim uArch: Shader 6 finished CTA #1 (1813,0), 5 CTAs running
GPGPU-Sim uArch: core:  6, cta: 1 initialized @(1814,0)
GPGPU-Sim uArch: core:  3, cta: 2 initialized @(1814,0)
GPGPU-Sim uArch: core:  3, cta: 3 initialized @(1815,0)
GPGPU-Sim uArch: Shader 7 finished CTA #1 (1825,0), 5 CTAs running
GPGPU-Sim uArch: Shader 7 finished CTA #2 (1825,0), 4 CTAs running
GPGPU-Sim uArch: core:  7, cta: 1 initialized @(1826,0)
GPGPU-Sim uArch: Shader 9 finished CTA #1 (1826,0), 5 CTAs running
GPGPU-Sim uArch: core:  9, cta: 1 initialized @(1827,0)
GPGPU-Sim uArch: core:  7, cta: 2 initialized @(1827,0)
GPGPU-Sim uArch: Shader 6 finished CTA #0 (1828,0), 5 CTAs running
GPGPU-Sim uArch: Shader 13 finished CTA #0 (1828,0), 5 CTAs running
GPGPU-Sim uArch: core: 13, cta: 0 initialized @(1829,0)
GPGPU-Sim uArch: core:  6, cta: 0 initialized @(1829,0)
GPGPU-Sim uArch: Shader 2 finished CTA #1 (1832,0), 5 CTAs running
GPGPU-Sim uArch: Shader 2 finished CTA #2 (1832,0), 4 CTAs running
GPGPU-Sim uArch: Shader 2 finished CTA #3 (1832,0), 3 CTAs running
GPGPU-Sim uArch: core:  2, cta: 1 initialized @(1833,0)
GPGPU-Sim uArch: core:  2, cta: 2 initialized @(1834,0)
GPGPU-Sim uArch: core:  2, cta: 3 initialized @(1835,0)
GPGPU-Sim uArch: Shader 11 finished CTA #0 (1836,0), 5 CTAs running
GPGPU-Sim uArch: core: 11, cta: 0 initialized @(1837,0)
GPGPU-Sim uArch: Shader 5 finished CTA #2 (1840,0), 5 CTAs running
GPGPU-Sim uArch: Shader 5 finished CTA #3 (1840,0), 4 CTAs running
GPGPU-Sim uArch: core:  5, cta: 2 initialized @(1841,0)
GPGPU-Sim uArch: core:  5, cta: 3 initialized @(1842,0)
GPGPU-Sim uArch: Shader 9 finished CTA #0 (1843,0), 5 CTAs running
GPGPU-Sim uArch: core:  9, cta: 0 initialized @(1844,0)
GPGPU-Sim uArch: Shader 1 finished CTA #4 (1846,0), 5 CTAs running
GPGPU-Sim uArch: Shader 12 finished CTA #1 (1846,0), 5 CTAs running
GPGPU-Sim uArch: core: 12, cta: 1 initialized @(1847,0)
GPGPU-Sim uArch: core:  1, cta: 4 initialized @(1847,0)
GPGPU-Sim uArch: Shader 11 finished CTA #1 (1849,0), 5 CTAs running
GPGPU-Sim uArch: Shader 11 finished CTA #2 (1849,0), 4 CTAs running
GPGPU-Sim uArch: core: 11, cta: 1 initialized @(1850,0)
GPGPU-Sim uArch: Shader 10 finished CTA #2 (1850,0), 5 CTAs running
GPGPU-Sim uArch: core: 10, cta: 2 initialized @(1851,0)
GPGPU-Sim uArch: core: 11, cta: 2 initialized @(1851,0)
GPGPU-Sim uArch: Shader 8 finished CTA #0 (1851,0), 5 CTAs running
GPGPU-Sim uArch: core:  8, cta: 0 initialized @(1852,0)
GPGPU-Sim uArch: Shader 6 finished CTA #2 (1858,0), 5 CTAs running
GPGPU-Sim uArch: Shader 6 finished CTA #3 (1858,0), 4 CTAs running
GPGPU-Sim uArch: core:  6, cta: 2 initialized @(1859,0)
GPGPU-Sim uArch: core:  6, cta: 3 initialized @(1860,0)
GPGPU-Sim uArch: Shader 0 finished CTA #3 (1872,0), 5 CTAs running
GPGPU-Sim uArch: core:  0, cta: 3 initialized @(1873,0)
GPGPU-Sim uArch: Shader 9 finished CTA #2 (1873,0), 5 CTAs running
GPGPU-Sim uArch: core:  9, cta: 2 initialized @(1874,0)
GPGPU-Sim uArch: Shader 12 finished CTA #0 (1874,0), 5 CTAs running
GPGPU-Sim uArch: core: 12, cta: 0 initialized @(1875,0)
GPGPU-Sim PTX: 700000 instructions simulated : ctaid=(196,0,0) tid=(237,0,0)
GPGPU-Sim uArch: Shader 4 finished CTA #3 (1875,0), 5 CTAs running
GPGPU-Sim uArch: Shader 8 finished CTA #1 (1875,0), 5 CTAs running
GPGPU-Sim uArch: Shader 8 finished CTA #2 (1875,0), 4 CTAs running
GPGPU-Sim uArch: Shader 8 finished CTA #3 (1875,0), 3 CTAs running
GPGPU-Sim uArch: core:  4, cta: 3 initialized @(1876,0)
GPGPU-Sim uArch: core:  8, cta: 1 initialized @(1876,0)
GPGPU-Sim uArch: core:  8, cta: 2 initialized @(1877,0)
GPGPU-Sim uArch: core:  8, cta: 3 initialized @(1878,0)
GPGPU-Sim uArch: Shader 10 finished CTA #1 (1882,0), 5 CTAs running
GPGPU-Sim uArch: core: 10, cta: 1 initialized @(1883,0)
GPGPU-Sim uArch: Shader 14 finished CTA #0 (1883,0), 5 CTAs running
GPGPU-Sim uArch: core: 14, cta: 0 initialized @(1884,0)
GPGPU-Sim uArch: Shader 13 finished CTA #1 (1903,0), 5 CTAs running
GPGPU-Sim uArch: core: 13, cta: 1 initialized @(1904,0)
GPGPU-Sim uArch: Shader 14 finished CTA #1 (1911,0), 5 CTAs running
GPGPU-Sim uArch: Shader 14 finished CTA #2 (1911,0), 4 CTAs running
GPGPU-Sim uArch: Shader 14 finished CTA #3 (1911,0), 3 CTAs running
GPGPU-Sim uArch: core: 14, cta: 1 initialized @(1912,0)
GPGPU-Sim uArch: core: 14, cta: 2 initialized @(1913,0)
GPGPU-Sim uArch: core: 14, cta: 3 initialized @(1914,0)
GPGPU-Sim uArch: Shader 10 finished CTA #3 (1918,0), 5 CTAs running
GPGPU-Sim uArch: core: 10, cta: 3 initialized @(1919,0)
GPGPU-Sim uArch: Shader 1 finished CTA #5 (1926,0), 5 CTAs running
GPGPU-Sim uArch: Shader 10 finished CTA #0 (1926,0), 5 CTAs running
GPGPU-Sim uArch: core:  1, cta: 5 initialized @(1927,0)
GPGPU-Sim uArch: core: 10, cta: 0 initialized @(1927,0)
GPGPU-Sim uArch: Shader 3 finished CTA #4 (1932,0), 5 CTAs running
GPGPU-Sim uArch: core:  3, cta: 4 initialized @(1933,0)
GPGPU-Sim uArch: Shader 13 finished CTA #2 (1939,0), 5 CTAs running
GPGPU-Sim uArch: Shader 13 finished CTA #3 (1939,0), 4 CTAs running
GPGPU-Sim uArch: core: 13, cta: 2 initialized @(1940,0)
GPGPU-Sim uArch: core: 13, cta: 3 initialized @(1941,0)
GPGPU-Sim uArch: Shader 12 finished CTA #2 (1941,0), 5 CTAs running
GPGPU-Sim uArch: core: 12, cta: 2 initialized @(1942,0)
GPGPU-Sim uArch: Shader 14 finished CTA #4 (1943,0), 5 CTAs running
GPGPU-Sim uArch: core: 14, cta: 4 initialized @(1944,0)
GPGPU-Sim uArch: Shader 0 finished CTA #5 (1951,0), 5 CTAs running
GPGPU-Sim uArch: core:  0, cta: 5 initialized @(1952,0)
GPGPU-Sim uArch: Shader 9 finished CTA #3 (1952,0), 5 CTAs running
GPGPU-Sim uArch: core:  9, cta: 3 initialized @(1953,0)
GPGPU-Sim uArch: Shader 2 finished CTA #4 (1962,0), 5 CTAs running
GPGPU-Sim uArch: core:  2, cta: 4 initialized @(1963,0)
GPGPU-Sim uArch: Shader 4 finished CTA #4 (1965,0), 5 CTAs running
GPGPU-Sim uArch: Shader 4 finished CTA #5 (1965,0), 4 CTAs running
GPGPU-Sim uArch: core:  4, cta: 4 initialized @(1966,0)
GPGPU-Sim uArch: Shader 7 finished CTA #3 (1966,0), 5 CTAs running
GPGPU-Sim uArch: Shader 7 finished CTA #4 (1966,0), 4 CTAs running
GPGPU-Sim uArch: core:  7, cta: 3 initialized @(1967,0)
GPGPU-Sim uArch: core:  4, cta: 5 initialized @(1967,0)
GPGPU-Sim uArch: core:  7, cta: 4 initialized @(1968,0)
GPGPU-Sim uArch: Shader 5 finished CTA #4 (1976,0), 5 CTAs running
GPGPU-Sim uArch: core:  5, cta: 4 initialized @(1977,0)
GPGPU-Sim uArch: Shader 3 finished CTA #5 (1980,0), 5 CTAs running
GPGPU-Sim uArch: core:  3, cta: 5 initialized @(1981,0)
GPGPU-Sim uArch: Shader 6 finished CTA #4 (1981,0), 5 CTAs running
GPGPU-Sim uArch: core:  6, cta: 4 initialized @(1982,0)
GPGPU-Sim uArch: Shader 0 finished CTA #4 (1983,0), 5 CTAs running
GPGPU-Sim uArch: Shader 13 finished CTA #4 (1983,0), 5 CTAs running
GPGPU-Sim uArch: core: 13, cta: 4 initialized @(1984,0)
GPGPU-Sim uArch: core:  0, cta: 4 initialized @(1984,0)
GPGPU-Sim uArch: Shader 12 finished CTA #3 (1984,0), 5 CTAs running
GPGPU-Sim uArch: Shader 12 finished CTA #4 (1984,0), 4 CTAs running
GPGPU-Sim uArch: core: 12, cta: 3 initialized @(1985,0)
GPGPU-Sim uArch: core: 12, cta: 4 initialized @(1986,0)
GPGPU-Sim uArch: Shader 11 finished CTA #3 (1986,0), 5 CTAs running
GPGPU-Sim uArch: Shader 11 finished CTA #4 (1986,0), 4 CTAs running
GPGPU-Sim uArch: Shader 11 finished CTA #5 (1986,0), 3 CTAs running
GPGPU-Sim uArch: core: 11, cta: 3 initialized @(1987,0)
GPGPU-Sim uArch: core: 11, cta: 4 initialized @(1988,0)
GPGPU-Sim uArch: core: 11, cta: 5 initialized @(1989,0)
GPGPU-Sim uArch: Shader 8 finished CTA #4 (1993,0), 5 CTAs running
GPGPU-Sim uArch: Shader 10 finished CTA #4 (1993,0), 5 CTAs running
GPGPU-Sim uArch: core:  8, cta: 4 initialized @(1994,0)
GPGPU-Sim PTX: 800000 instructions simulated : ctaid=(199,0,0) tid=(75,0,0)
GPGPU-Sim uArch: Shader 9 finished CTA #4 (1996,0), 5 CTAs running
GPGPU-Sim uArch: cycles simulated: 2000  inst.: 740209 (ipc=370.1) sim_rate=148041 (inst/sec) elapsed = 0:0:00:05 / Fri Mar  4 03:51:58 2016
GPGPU-Sim uArch: Shader 2 finished CTA #5 (2001,0), 5 CTAs running
GPGPU-Sim uArch: Shader 7 finished CTA #5 (2012,0), 5 CTAs running
GPGPU-Sim uArch: Shader 5 finished CTA #5 (2020,0), 5 CTAs running
GPGPU-Sim uArch: Shader 6 finished CTA #5 (2020,0), 5 CTAs running
GPGPU-Sim uArch: Shader 13 finished CTA #5 (2027,0), 5 CTAs running
GPGPU-Sim uArch: Shader 9 finished CTA #5 (2029,0), 4 CTAs running
GPGPU-Sim uArch: Shader 8 finished CTA #5 (2031,0), 5 CTAs running
GPGPU-Sim uArch: Shader 12 finished CTA #5 (2032,0), 5 CTAs running
GPGPU-Sim uArch: Shader 10 finished CTA #5 (2033,0), 4 CTAs running
GPGPU-Sim uArch: Shader 14 finished CTA #5 (2033,0), 5 CTAs running
GPGPU-Sim PTX: 900000 instructions simulated : ctaid=(249,0,0) tid=(75,0,0)
GPGPU-Sim uArch: Shader 1 finished CTA #1 (2152,0), 5 CTAs running
GPGPU-Sim uArch: Shader 4 finished CTA #0 (2190,0), 5 CTAs running
GPGPU-Sim uArch: Shader 1 finished CTA #2 (2199,0), 4 CTAs running
GPGPU-Sim uArch: Shader 3 finished CTA #0 (2200,0), 5 CTAs running
GPGPU-Sim uArch: Shader 0 finished CTA #0 (2213,0), 5 CTAs running
GPGPU-Sim uArch: Shader 7 finished CTA #0 (2239,0), 4 CTAs running
GPGPU-Sim uArch: Shader 5 finished CTA #0 (2241,0), 4 CTAs running
GPGPU-Sim uArch: Shader 13 finished CTA #0 (2249,0), 4 CTAs running
GPGPU-Sim uArch: Shader 1 finished CTA #3 (2255,0), 3 CTAs running
GPGPU-Sim uArch: Shader 0 finished CTA #1 (2258,0), 4 CTAs running
GPGPU-Sim uArch: Shader 5 finished CTA #1 (2258,0), 3 CTAs running
GPGPU-Sim uArch: Shader 4 finished CTA #1 (2266,0), 4 CTAs running
GPGPU-Sim uArch: Shader 9 finished CTA #1 (2271,0), 3 CTAs running
GPGPU-Sim uArch: Shader 11 finished CTA #0 (2281,0), 5 CTAs running
GPGPU-Sim uArch: Shader 6 finished CTA #1 (2290,0), 4 CTAs running
GPGPU-Sim uArch: Shader 12 finished CTA #1 (2301,0), 4 CTAs running
GPGPU-Sim uArch: Shader 2 finished CTA #0 (2307,0), 4 CTAs running
GPGPU-Sim uArch: Shader 7 finished CTA #1 (2311,0), 3 CTAs running
GPGPU-Sim uArch: Shader 4 finished CTA #2 (2315,0), 3 CTAs running
GPGPU-Sim uArch: Shader 1 finished CTA #4 (2316,0), 2 CTAs running
GPGPU-Sim uArch: Shader 2 finished CTA #1 (2316,0), 3 CTAs running
GPGPU-Sim uArch: Shader 6 finished CTA #0 (2318,0), 3 CTAs running
GPGPU-Sim uArch: Shader 10 finished CTA #2 (2318,0), 3 CTAs running
GPGPU-Sim uArch: Shader 3 finished CTA #1 (2323,0), 4 CTAs running
GPGPU-Sim uArch: Shader 5 finished CTA #2 (2324,0), 2 CTAs running
GPGPU-Sim uArch: Shader 8 finished CTA #0 (2333,0), 4 CTAs running
GPGPU-Sim uArch: Shader 11 finished CTA #1 (2333,0), 4 CTAs running
GPGPU-Sim uArch: Shader 3 finished CTA #2 (2335,0), 3 CTAs running
GPGPU-Sim uArch: Shader 0 finished CTA #2 (2340,0), 3 CTAs running
GPGPU-Sim uArch: Shader 1 finished CTA #5 (2346,0), 1 CTAs running
GPGPU-Sim uArch: Shader 2 finished CTA #2 (2347,0), 2 CTAs running
GPGPU-Sim uArch: Shader 7 finished CTA #2 (2347,0), 2 CTAs running
GPGPU-Sim uArch: Shader 9 finished CTA #0 (2352,0), 2 CTAs running
GPGPU-Sim uArch: Shader 3 finished CTA #3 (2356,0), 2 CTAs running
GPGPU-Sim uArch: Shader 9 finished CTA #2 (2365,0), 1 CTAs running
GPGPU-Sim uArch: Shader 6 finished CTA #2 (2367,0), 2 CTAs running
GPGPU-Sim uArch: Shader 0 finished CTA #3 (2368,0), 2 CTAs running
GPGPU-Sim uArch: Shader 5 finished CTA #3 (2369,0), 1 CTAs running
GPGPU-Sim uArch: Shader 10 finished CTA #1 (2369,0), 2 CTAs running
GPGPU-Sim uArch: Shader 12 finished CTA #0 (2375,0), 3 CTAs running
GPGPU-Sim uArch: Shader 8 finished CTA #1 (2379,0), 3 CTAs running
GPGPU-Sim uArch: Shader 6 finished CTA #3 (2382,0), 1 CTAs running
GPGPU-Sim uArch: Shader 11 finished CTA #2 (2385,0), 3 CTAs running
GPGPU-Sim uArch: Shader 13 finished CTA #1 (2385,0), 3 CTAs running
GPGPU-Sim uArch: Shader 2 finished CTA #3 (2391,0), 1 CTAs running
GPGPU-Sim uArch: Shader 4 finished CTA #3 (2392,0), 2 CTAs running
GPGPU-Sim uArch: Shader 14 finished CTA #0 (2397,0), 4 CTAs running
GPGPU-Sim uArch: Shader 10 finished CTA #3 (2400,0), 1 CTAs running
GPGPU-Sim uArch: Shader 8 finished CTA #2 (2404,0), 2 CTAs running
GPGPU-Sim uArch: Shader 9 finished CTA #3 (2406,0), 0 CTAs running
GPGPU-Sim uArch: Shader 9 empty (release kernel 1 '_Z6KernelP4NodePiPbS2_S1_S2_i').
GPGPU-Sim uArch: Shader 8 finished CTA #3 (2408,0), 1 CTAs running
GPGPU-Sim uArch: Shader 7 finished CTA #3 (2413,0), 1 CTAs running
GPGPU-Sim uArch: Shader 10 finished CTA #0 (2413,0), 0 CTAs running
GPGPU-Sim uArch: Shader 10 empty (release kernel 1 '_Z6KernelP4NodePiPbS2_S1_S2_i').
GPGPU-Sim uArch: Shader 5 finished CTA #4 (2424,0), 0 CTAs running
GPGPU-Sim uArch: Shader 5 empty (release kernel 1 '_Z6KernelP4NodePiPbS2_S1_S2_i').
GPGPU-Sim uArch: Shader 7 finished CTA #4 (2426,0), 0 CTAs running
GPGPU-Sim uArch: Shader 7 empty (release kernel 1 '_Z6KernelP4NodePiPbS2_S1_S2_i').
GPGPU-Sim uArch: Shader 14 finished CTA #1 (2427,0), 3 CTAs running
GPGPU-Sim uArch: Shader 13 finished CTA #2 (2429,0), 2 CTAs running
GPGPU-Sim uArch: Shader 2 finished CTA #4 (2430,0), 0 CTAs running
GPGPU-Sim uArch: Shader 2 empty (release kernel 1 '_Z6KernelP4NodePiPbS2_S1_S2_i').
GPGPU-Sim uArch: Shader 3 finished CTA #4 (2433,0), 1 CTAs running
GPGPU-Sim uArch: Shader 12 finished CTA #2 (2435,0), 2 CTAs running
GPGPU-Sim uArch: Shader 0 finished CTA #5 (2436,0), 1 CTAs running
GPGPU-Sim uArch: Shader 14 finished CTA #2 (2438,0), 2 CTAs running
GPGPU-Sim uArch: Shader 14 finished CTA #3 (2442,0), 1 CTAs running
GPGPU-Sim uArch: Shader 3 finished CTA #5 (2446,0), 0 CTAs running
GPGPU-Sim uArch: Shader 3 empty (release kernel 1 '_Z6KernelP4NodePiPbS2_S1_S2_i').
GPGPU-Sim uArch: Shader 13 finished CTA #3 (2447,0), 1 CTAs running
GPGPU-Sim uArch: Shader 0 finished CTA #4 (2449,0), 0 CTAs running
GPGPU-Sim uArch: Shader 0 empty (release kernel 1 '_Z6KernelP4NodePiPbS2_S1_S2_i').
GPGPU-Sim uArch: Shader 6 finished CTA #4 (2452,0), 0 CTAs running
GPGPU-Sim uArch: Shader 6 empty (release kernel 1 '_Z6KernelP4NodePiPbS2_S1_S2_i').
GPGPU-Sim uArch: Shader 4 finished CTA #5 (2456,0), 1 CTAs running
GPGPU-Sim uArch: Shader 4 finished CTA #4 (2458,0), 0 CTAs running
GPGPU-Sim uArch: Shader 4 empty (release kernel 1 '_Z6KernelP4NodePiPbS2_S1_S2_i').
GPGPU-Sim uArch: Shader 8 finished CTA #4 (2463,0), 0 CTAs running
GPGPU-Sim uArch: Shader 8 empty (release kernel 1 '_Z6KernelP4NodePiPbS2_S1_S2_i').
GPGPU-Sim uArch: Shader 12 finished CTA #3 (2469,0), 1 CTAs running
GPGPU-Sim uArch: Shader 13 finished CTA #4 (2474,0), 0 CTAs running
GPGPU-Sim uArch: Shader 13 empty (release kernel 1 '_Z6KernelP4NodePiPbS2_S1_S2_i').
GPGPU-Sim uArch: Shader 11 finished CTA #3 (2475,0), 2 CTAs running
GPGPU-Sim uArch: Shader 12 finished CTA #4 (2482,0), 0 CTAs running
GPGPU-Sim uArch: Shader 12 empty (release kernel 1 '_Z6KernelP4NodePiPbS2_S1_S2_i').
GPGPU-Sim uArch: Shader 14 finished CTA #4 (2493,0), 0 CTAs running
GPGPU-Sim uArch: Shader 14 empty (release kernel 1 '_Z6KernelP4NodePiPbS2_S1_S2_i').
GPGPU-Sim uArch: cycles simulated: 2500  inst.: 917334 (ipc=366.9) sim_rate=152889 (inst/sec) elapsed = 0:0:00:06 / Fri Mar  4 03:51:59 2016
GPGPU-Sim uArch: Shader 11 finished CTA #4 (2500,0), 1 CTAs running
GPGPU-Sim uArch: Shader 11 finished CTA #5 (2504,0), 0 CTAs running
GPGPU-Sim uArch: Shader 11 empty (release kernel 1 '_Z6KernelP4NodePiPbS2_S1_S2_i').
GPGPU-Sim uArch: Shader 1 finished CTA #0 (5903,0), 0 CTAs running
GPGPU-Sim uArch: Shader 1 empty (release kernel 1 '_Z6KernelP4NodePiPbS2_S1_S2_i').
GPGPU-Sim uArch: GPU detected kernel '_Z6KernelP4NodePiPbS2_S1_S2_i' finished on shader 1.
kernel_name = _Z6KernelP4NodePiPbS2_S1_S2_i 
kernel_launch_uid = 1 
gpu_sim_cycle = 5904
gpu_sim_insn = 917736
gpu_ipc =     155.4431
gpu_tot_sim_cycle = 5904
gpu_tot_sim_insn = 917736
gpu_tot_ipc =     155.4431
gpu_tot_issued_cta = 256
gpu_stall_dramfull = 282
gpu_stall_icnt2sh    = 350
gpu_total_sim_rate=152956

========= Core cache stats =========
L1I_cache:
	L1I_total_cache_accesses = 18559
	L1I_total_cache_misses = 962
	L1I_total_cache_miss_rate = 0.0518
	L1I_total_cache_pending_hits = 0
	L1I_total_cache_reservation_fails = 6669
L1D_cache:
	L1D_cache_core[0]: Access = 144, Miss = 36, Miss_rate = 0.250, Pending_hits = 108, Reservation_fails = 0
	L1D_cache_core[1]: Access = 196, Miss = 68, Miss_rate = 0.347, Pending_hits = 96, Reservation_fails = 0
	L1D_cache_core[2]: Access = 136, Miss = 34, Miss_rate = 0.250, Pending_hits = 102, Reservation_fails = 0
	L1D_cache_core[3]: Access = 144, Miss = 36, Miss_rate = 0.250, Pending_hits = 108, Reservation_fails = 0
	L1D_cache_core[4]: Access = 144, Miss = 36, Miss_rate = 0.250, Pending_hits = 108, Reservation_fails = 0
	L1D_cache_core[5]: Access = 136, Miss = 34, Miss_rate = 0.250, Pending_hits = 102, Reservation_fails = 0
	L1D_cache_core[6]: Access = 136, Miss = 34, Miss_rate = 0.250, Pending_hits = 102, Reservation_fails = 0
	L1D_cache_core[7]: Access = 136, Miss = 34, Miss_rate = 0.250, Pending_hits = 102, Reservation_fails = 0
	L1D_cache_core[8]: Access = 136, Miss = 34, Miss_rate = 0.250, Pending_hits = 102, Reservation_fails = 0
	L1D_cache_core[9]: Access = 128, Miss = 32, Miss_rate = 0.250, Pending_hits = 96, Reservation_fails = 0
	L1D_cache_core[10]: Access = 128, Miss = 32, Miss_rate = 0.250, Pending_hits = 96, Reservation_fails = 0
	L1D_cache_core[11]: Access = 144, Miss = 36, Miss_rate = 0.250, Pending_hits = 108, Reservation_fails = 0
	L1D_cache_core[12]: Access = 136, Miss = 34, Miss_rate = 0.250, Pending_hits = 102, Reservation_fails = 0
	L1D_cache_core[13]: Access = 136, Miss = 34, Miss_rate = 0.250, Pending_hits = 102, Reservation_fails = 0
	L1D_cache_core[14]: Access = 136, Miss = 34, Miss_rate = 0.250, Pending_hits = 102, Reservation_fails = 0
	L1D_total_cache_accesses = 2116
	L1D_total_cache_misses = 548
	L1D_total_cache_miss_rate = 0.2590
	L1D_total_cache_pending_hits = 1536
	L1D_total_cache_reservation_fails = 0
	L1D_cache_data_port_util = 0.001
	L1D_cache_fill_port_util = 0.013
L1C_cache:
	L1C_total_cache_accesses = 4115
	L1C_total_cache_misses = 480
	L1C_total_cache_miss_rate = 0.1166
	L1C_total_cache_pending_hits = 0
	L1C_total_cache_reservation_fails = 3157
L1T_cache:
	L1T_total_cache_accesses = 0
	L1T_total_cache_misses = 0
	L1T_total_cache_pending_hits = 0
	L1T_total_cache_reservation_fails = 0

Total_core_cache_stats:
	Total_core_cache_stats_breakdown[GLOBAL_ACC_R][HIT] = 31
	Total_core_cache_stats_breakdown[GLOBAL_ACC_R][HIT_RESERVED] = 1536
	Total_core_cache_stats_breakdown[GLOBAL_ACC_R][MISS] = 523
	Total_core_cache_stats_breakdown[CONST_ACC_R][HIT] = 3635
	Total_core_cache_stats_breakdown[CONST_ACC_R][MISS] = 480
	Total_core_cache_stats_breakdown[CONST_ACC_R][RESERVATION_FAIL] = 3157
	Total_core_cache_stats_breakdown[GLOBAL_ACC_W][HIT] = 1
	Total_core_cache_stats_breakdown[GLOBAL_ACC_W][MISS] = 25
	Total_core_cache_stats_breakdown[INST_ACC_R][HIT] = 17597
	Total_core_cache_stats_breakdown[INST_ACC_R][MISS] = 962
	Total_core_cache_stats_breakdown[INST_ACC_R][RESERVATION_FAIL] = 6669
Shader 0 warp_id issue ditsribution:
warp_id:
0, 1, 2, 3, 4, 5, 6, 7, 8, 9, 10, 11, 12, 13, 14, 15, 16, 17, 18, 19, 20, 21, 22, 23, 24, 25, 26, 27, 28, 29, 30, 31, 32, 33, 34, 35, 36, 37, 38, 39, 40, 41, 42, 43, 44, 45, 46, 47, 
distro:
45, 45, 45, 45, 45, 45, 45, 45, 45, 45, 45, 45, 45, 45, 45, 45, 45, 45, 45, 45, 45, 45, 45, 45, 45, 45, 45, 45, 45, 45, 45, 45, 45, 45, 45, 45, 45, 45, 45, 45, 45, 45, 45, 45, 45, 45, 45, 45, 
gpgpu_n_tot_thrd_icount = 990816
gpgpu_n_tot_w_icount = 30963
gpgpu_n_stall_shd_mem = 3157
gpgpu_n_mem_read_local = 0
gpgpu_n_mem_write_local = 0
gpgpu_n_mem_read_global = 523
gpgpu_n_mem_write_global = 26
gpgpu_n_mem_texture = 0
gpgpu_n_mem_const = 15
gpgpu_n_load_insn  = 65578
gpgpu_n_store_insn = 26
gpgpu_n_shmem_insn = 0
gpgpu_n_tex_insn = 0
gpgpu_n_const_mem_insn = 0
gpgpu_n_param_mem_insn = 131091
gpgpu_n_shmem_bkconflict = 0
gpgpu_n_cache_bkconflict = 0
gpgpu_n_intrawarp_mshr_merge = 0
gpgpu_n_cmem_portconflict = 3157
gpgpu_stall_shd_mem[c_mem][bk_conf] = 3157
gpgpu_stall_shd_mem[c_mem][mshr_rc] = 0
gpgpu_stall_shd_mem[c_mem][icnt_rc] = 0
gpgpu_stall_shd_mem[c_mem][data_port_stall] = 0
gpgpu_stall_shd_mem[t_mem][mshr_rc] = 0
gpgpu_stall_shd_mem[t_mem][icnt_rc] = 0
gpgpu_stall_shd_mem[t_mem][data_port_stall] = 0
gpgpu_stall_shd_mem[s_mem][bk_conf] = 0
gpgpu_stall_shd_mem[gl_mem][bk_conf] = 0
gpgpu_stall_shd_mem[gl_mem][coal_stall] = 0
gpgpu_stall_shd_mem[gl_mem][data_port_stall] = 0
gpgpu_stall_shd_mem[g_mem_ld][mshr_rc] = 0
gpgpu_stall_shd_mem[g_mem_ld][icnt_rc] = 0
gpgpu_stall_shd_mem[g_mem_ld][wb_icnt_rc] = 0
gpgpu_stall_shd_mem[g_mem_ld][wb_rsrv_fail] = 0
gpgpu_stall_shd_mem[g_mem_st][mshr_rc] = 0
gpgpu_stall_shd_mem[g_mem_st][icnt_rc] = 0
gpgpu_stall_shd_mem[g_mem_st][wb_icnt_rc] = 0
gpgpu_stall_shd_mem[g_mem_st][wb_rsrv_fail] = 0
gpgpu_stall_shd_mem[l_mem_ld][mshr_rc] = 0
gpgpu_stall_shd_mem[l_mem_ld][icnt_rc] = 0
gpgpu_stall_shd_mem[l_mem_ld][wb_icnt_rc] = 0
gpgpu_stall_shd_mem[l_mem_ld][wb_rsrv_fail] = 0
gpgpu_stall_shd_mem[l_mem_st][mshr_rc] = 0
gpgpu_stall_shd_mem[l_mem_st][icnt_rc] = 0
gpgpu_stall_shd_mem[l_mem_ld][wb_icnt_rc] = 0
gpgpu_stall_shd_mem[l_mem_ld][wb_rsrv_fail] = 0
gpu_reg_bank_conflict_stalls = 0
Warp Occupancy Distribution:
Stall:7157	W0_Idle:18424	W0_Scoreboard:23932	W1:243	W2:0	W3:0	W4:0	W5:0	W6:0	W7:0	W8:0	W9:0	W10:0	W11:0	W12:0	W13:0	W14:0	W15:0	W16:0	W17:0	W18:0	W19:0	W20:0	W21:0	W22:0	W23:0	W24:0	W25:0	W26:0	W27:0	W28:0	W29:0	W30:0	W31:0	W32:30720
traffic_breakdown_coretomem[CONST_ACC_R] = 120 {8:15,}
traffic_breakdown_coretomem[GLOBAL_ACC_R] = 4184 {8:523,}
traffic_breakdown_coretomem[GLOBAL_ACC_W] = 1040 {40:26,}
traffic_breakdown_coretomem[INST_ACC_R] = 256 {8:32,}
traffic_breakdown_memtocore[CONST_ACC_R] = 1080 {72:15,}
traffic_breakdown_memtocore[GLOBAL_ACC_R] = 71128 {136:523,}
traffic_breakdown_memtocore[GLOBAL_ACC_W] = 208 {8:26,}
traffic_breakdown_memtocore[INST_ACC_R] = 4352 {136:32,}
maxmrqlatency = 46 
maxdqlatency = 0 
maxmflatency = 321 
averagemflatency = 265 
max_icnt2mem_latency = 36 
max_icnt2sh_latency = 5903 
mrq_lat_table:393 	41 	40 	52 	17 	5 	0 	0 	0 	0 	0 	0 	0 	0 	0 	0 	0 	0 	0 	0 	0 	0 	0 	0 	0 	0 	0 	0 	0 	0 	0 	0 	
dq_lat_table:0 	0 	0 	0 	0 	0 	0 	0 	0 	0 	0 	0 	0 	0 	0 	0 	0 	0 	0 	0 	0 	0 	0 	0 	0 	0 	0 	0 	0 	0 	0 	0 	
mf_lat_table:0 	0 	0 	0 	0 	0 	0 	30 	534 	0 	0 	0 	0 	0 	0 	0 	0 	0 	0 	0 	0 	0 	0 	0 	0 	0 	0 	0 	0 	0 	0 	0 	
icnt2mem_lat_table:0 	0 	0 	585 	8 	3 	0 	0 	0 	0 	0 	0 	0 	0 	0 	0 	0 	0 	0 	0 	0 	0 	0 	0 	
icnt2sh_lat_table:0 	0 	0 	318 	188 	30 	2 	0 	0 	0 	2 	9 	15 	0 	0 	0 	0 	0 	0 	0 	0 	0 	0 	0 	
mf_lat_pw_table:0 	0 	0 	0 	0 	0 	0 	6 	4 	0 	0 	0 	0 	0 	0 	0 	0 	0 	0 	0 	0 	0 	0 	0 	0 	0 	0 	0 	0 	0 	0 	0 	
maximum concurrent accesses to same row:
dram[0]:         1         0         0         0         0         0         0         0         0         0         0         0         0         0         0         0 
dram[1]:         0         0         0         0         0         0         0         0         0         0         0         0         0         0         0         0 
dram[2]:         0         0         0         0         0         0         0         0         0         0         0         0         0         0         0         0 
dram[3]:         0         0         0         0         0         0         0         0         0         0         0         0         0         0         0         0 
dram[4]:         0         0         0         0         0         0         0         0         0         0        22        22         0         0         0         0 
dram[5]:         0         0         0         0         0         0         0         0         0         0         0         0         0         0         0         0 
maximum service time to same row:
dram[0]:      1559         0      5885         0         0         0         0         0         0         0       929       897      1729      1741         0         0 
dram[1]:      1176         0         0         0         0         0         0         0         0         0       934       904      1774      1749         0      3946 
dram[2]:         0         0         0      3069         0      1585         0         0         0      4281       935       907      1738      1510         0         0 
dram[3]:         0         0         0      5079         0      4679         0         0         0         0       944       904      1807      1750         0         0 
dram[4]:         0      3872         0         0         0      5478         0         0         0         0      1250      2561      1746      1754      3138         0 
dram[5]:         0         0         0         0         0         0         0         0         0         0       913       916      1754      1785      5550         0 
average row accesses per activate:
dram[0]:  1.000000      -nan  2.000000      -nan      -nan      -nan      -nan      -nan      -nan      -nan 20.000000 22.000000 22.000000 22.000000      -nan      -nan 
dram[1]:  2.000000      -nan      -nan      -nan      -nan      -nan      -nan      -nan      -nan      -nan 20.000000 22.000000 24.000000 22.000000      -nan  3.000000 
dram[2]:      -nan      -nan      -nan  2.000000      -nan  1.000000      -nan      -nan      -nan  2.000000 20.000000 22.000000 22.000000 22.000000      -nan      -nan 
dram[3]:      -nan      -nan      -nan  2.000000      -nan  2.000000      -nan      -nan      -nan      -nan 20.000000 22.000000 22.000000 20.000000      -nan      -nan 
dram[4]:      -nan  2.000000      -nan      -nan      -nan  2.000000      -nan      -nan      -nan      -nan  8.333333 12.000000 22.000000 20.000000  2.000000      -nan 
dram[5]:      -nan      -nan      -nan      -nan      -nan      -nan      -nan      -nan      -nan      -nan 22.000000 22.000000 22.000000 20.000000  1.000000      -nan 
average row locality = 548/43 = 12.744186
number of total memory accesses made:
dram[0]:         0         0         0         0         0         0         0         0         0         0         0         0         0         0         0         0 
dram[1]:         0         0         0         0         0         0         0         0         0         0         0         0         0         0         0         0 
dram[2]:         0         0         0         0         0         0         0         0         0         0         0         0         0         0         0         0 
dram[3]:         0         0         0         0         0         0         0         0         0         0         0         0         0         0         0         0 
dram[4]:         0         0         0         0         0         0         0         0         0         0         0         0         0         0         0         0 
dram[5]:         0         0         0         0         0         0         0         0         0         0         0         0         0         0         0         0 
total accesses: 0
min_bank_accesses = 0!
min_chip_accesses = 0!
number of total read accesses:
dram[0]:         4         0         1         0         0         0         0         0         0         0        20        22        22        22         0         0 
dram[1]:         2         0         0         0         0         0         0         0         0         0        20        22        24        22         0         3 
dram[2]:         0         0         0         1         0         1         0         0         0         1        20        22        22        21         0         0 
dram[3]:         0         0         0         1         0         1         0         0         0         0        20        22        22        20         0         0 
dram[4]:         0         1         0         0         0         1         0         0         0         0        24        23        22        20         2         0 
dram[5]:         0         0         0         0         0         0         0         0         0         0        22        22        22        20         1         0 
total reads: 538
min_bank_accesses = 0!
chip skew: 93/86 = 1.08
number of total write accesses:
dram[0]:         0         0         1         0         0         0         0         0         0         0         0         0         0         0         0         0 
dram[1]:         0         0         0         0         0         0         0         0         0         0         0         0         0         0         0         0 
dram[2]:         0         0         0         1         0         0         0         0         0         1         0         0         0         1         0         0 
dram[3]:         0         0         0         1         0         1         0         0         0         0         0         0         0         0         0         0 
dram[4]:         0         1         0         0         0         1         0         0         0         0         1         1         0         0         0         0 
dram[5]:         0         0         0         0         0         0         0         0         0         0         0         0         0         0         0         0 
total reads: 10
min_bank_accesses = 0!
min_chip_accesses = 0!
average mf latency per bank:
dram[0]:       1051    none         125    none      none      none      none      none      none      none         269       269       290       266    none      none  
dram[1]:          0    none      none      none      none      none      none      none      none      none         276       268       263       269    none         262
dram[2]:     none      none      none         126    none         268    none      none      none         126       266       264       271       255    none      none  
dram[3]:     none      none      none         126    none         125    none      none      none      none         280       285       276       266    none      none  
dram[4]:     none         126    none      none      none         126    none      none      none      none         298       258       278       276       263    none  
dram[5]:     none      none      none      none      none      none      none      none      none      none         265       269       274       272       268    none  
maximum mf latency per bank:
dram[0]:        282         0       251         0         0         0         0         0         0         0       294       283       321       301         0         0
dram[1]:          0         0         0         0         0         0         0         0         0         0       290       284       274       292         0       268
dram[2]:          0         0         0       252         0       268         0         0         0       252       277       282       313       288         0         0
dram[3]:          0         0         0       252         0       251         0         0         0         0       289       287       282       280         0         0
dram[4]:          0       252         0         0         0       252         0         0         0         0       281       285       317       319       268         0
dram[5]:          0         0         0         0         0         0         0         0         0         0       291       280       318       299       268         0

Number of Memory Banks Accessed per Memory Operation per Warp (from 0):
0	0	0	0	0	0	0	0	0	0	0	0	0	0	0	0	0	0	0	0	0	0	0	0	0	0	0	0	0	0	0	0	0	0	0	0	0	0	0	0	0	0	0	0	0	0	0	0	0	0	0	0	0	0	0	0	0	0	0	0	0	0	0	0	0	0	0	0	0	0	0	0	0	0	0	0	0	0	0	0	0	0	0	0	0	0	0	0	0	0	0	0	0	0	0	0	
Average # of Memory Banks Accessed per Memory Operation per Warp=-nan

position of mrq chosen
0	0	0	0	0	0	0	0	0	0	0	0	0	0	0	0	

average position of mrq chosen = -nan
Memory Partition 0: 
Cache L2_bank_000:
MSHR contents
MSHR: tag=0x80234400, atomic=0 1 entries : 0x7f56740e5bb0 :  mf: uid= 34626, sid01:w00, part=0, addr=0x80234440, load , size=32, unknown  status = IN_PARTITION_DRAM (5903), 

Cache L2_bank_001:
MSHR contents

In Dram Latency Queue (total = 0): 
DRAM[0]: 16 bks, busW=4 BL=8 CL=12, tRRD=2 tCCD=6, tRCD=12 tRAS=28 tRP=12 tRC=40
n_cmd=7792 n_nop=7599 n_act=9 n_pre=3 n_req=92 n_rd=180 n_write=1 bw_util=0.1858
n_activity=1051 dram_eff=1.378
bk0: 8a 7690i bk1: 0a 7787i bk2: 0a 7766i bk3: 0a 7789i bk4: 0a 7790i bk5: 0a 7792i bk6: 0a 7794i bk7: 0a 7794i bk8: 0a 7795i bk9: 0a 7795i bk10: 40a 7678i bk11: 44a 7624i bk12: 44a 7643i bk13: 44a 7620i bk14: 0a 7790i bk15: 0a 7790i 
dram_util_bins: 0 0 0 0 0 0 0 0 0 0
dram_eff_bins: 0 0 0 0 0 0 0 0 0 0
mrqq: max=3 avg=0.035806
Memory Partition 1: 
Cache L2_bank_002:
MSHR contents

Cache L2_bank_003:
MSHR contents

In Dram Latency Queue (total = 0): 
DRAM[1]: 16 bks, busW=4 BL=8 CL=12, tRRD=2 tCCD=6, tRCD=12 tRAS=28 tRP=12 tRC=40
n_cmd=7792 n_nop=7600 n_act=6 n_pre=0 n_req=93 n_rd=186 n_write=0 bw_util=0.191
n_activity=979 dram_eff=1.52
bk0: 4a 7768i bk1: 0a 7789i bk2: 0a 7790i bk3: 0a 7790i bk4: 0a 7790i bk5: 0a 7790i bk6: 0a 7792i bk7: 0a 7794i bk8: 0a 7795i bk9: 0a 7795i bk10: 40a 7683i bk11: 44a 7612i bk12: 48a 7664i bk13: 44a 7601i bk14: 0a 7790i bk15: 6a 7766i 
dram_util_bins: 0 0 0 0 0 0 0 0 0 0
dram_eff_bins: 0 0 0 0 0 0 0 0 0 0
mrqq: max=2 avg=0.025154
Memory Partition 2: 
Cache L2_bank_004:
MSHR contents

Cache L2_bank_005:
MSHR contents

In Dram Latency Queue (total = 0): 
DRAM[2]: 16 bks, busW=4 BL=8 CL=12, tRRD=2 tCCD=6, tRCD=12 tRAS=28 tRP=12 tRC=40
n_cmd=7792 n_nop=7606 n_act=7 n_pre=0 n_req=91 n_rd=176 n_write=3 bw_util=0.1838
n_activity=1017 dram_eff=1.408
bk0: 0a 7792i bk1: 0a 7793i bk2: 0a 7793i bk3: 2a 7764i bk4: 0a 7791i bk5: 2a 7774i bk6: 0a 7792i bk7: 0a 7794i bk8: 0a 7794i bk9: 2a 7765i bk10: 40a 7671i bk11: 44a 7616i bk12: 44a 7662i bk13: 42a 7616i bk14: 0a 7789i bk15: 0a 7791i 
dram_util_bins: 0 0 0 0 0 0 0 0 0 0
dram_eff_bins: 0 0 0 0 0 0 0 0 0 0
mrqq: max=4 avg=0.0272074
Memory Partition 3: 
Cache L2_bank_006:
MSHR contents

Cache L2_bank_007:
MSHR contents

In Dram Latency Queue (total = 0): 
DRAM[3]: 16 bks, busW=4 BL=8 CL=12, tRRD=2 tCCD=6, tRCD=12 tRAS=28 tRP=12 tRC=40
n_cmd=7792 n_nop=7612 n_act=6 n_pre=0 n_req=88 n_rd=172 n_write=2 bw_util=0.1786
n_activity=890 dram_eff=1.564
bk0: 0a 7790i bk1: 0a 7792i bk2: 0a 7793i bk3: 2a 7764i bk4: 0a 7792i bk5: 2a 7765i bk6: 0a 7792i bk7: 0a 7793i bk8: 0a 7794i bk9: 0a 7794i bk10: 40a 7679i bk11: 44a 7616i bk12: 44a 7675i bk13: 40a 7646i bk14: 0a 7789i bk15: 0a 7789i 
dram_util_bins: 0 0 0 0 0 0 0 0 0 0
dram_eff_bins: 0 0 0 0 0 0 0 0 0 0
mrqq: max=3 avg=0.0309292
Memory Partition 4: 
Cache L2_bank_008:
MSHR contents

Cache L2_bank_009:
MSHR contents

In Dram Latency Queue (total = 0): 
DRAM[4]: 16 bks, busW=4 BL=8 CL=12, tRRD=2 tCCD=6, tRCD=12 tRAS=28 tRP=12 tRC=40
n_cmd=7792 n_nop=7589 n_act=10 n_pre=3 n_req=97 n_rd=186 n_write=4 bw_util=0.1951
n_activity=1105 dram_eff=1.376
bk0: 0a 7789i bk1: 2a 7762i bk2: 0a 7790i bk3: 0a 7790i bk4: 0a 7791i bk5: 2a 7766i bk6: 0a 7795i bk7: 0a 7796i bk8: 0a 7797i bk9: 0a 7797i bk10: 48a 7611i bk11: 46a 7574i bk12: 44a 7655i bk13: 40a 7602i bk14: 4a 7767i bk15: 0a 7787i 
dram_util_bins: 0 0 0 0 0 0 0 0 0 0
dram_eff_bins: 0 0 0 0 0 0 0 0 0 0
mrqq: max=5 avg=0.0547998
Memory Partition 5: 
Cache L2_bank_010:
MSHR contents

Cache L2_bank_011:
MSHR contents

In Dram Latency Queue (total = 0): 
DRAM[5]: 16 bks, busW=4 BL=8 CL=12, tRRD=2 tCCD=6, tRCD=12 tRAS=28 tRP=12 tRC=40
n_cmd=7792 n_nop=7613 n_act=5 n_pre=0 n_req=87 n_rd=174 n_write=0 bw_util=0.1786
n_activity=838 dram_eff=1.661
bk0: 0a 7788i bk1: 0a 7789i bk2: 0a 7789i bk3: 0a 7791i bk4: 0a 7791i bk5: 0a 7792i bk6: 0a 7793i bk7: 0a 7794i bk8: 0a 7795i bk9: 0a 7796i bk10: 44a 7671i bk11: 44a 7598i bk12: 44a 7656i bk13: 40a 7643i bk14: 2a 7773i bk15: 0a 7788i 
dram_util_bins: 0 0 0 0 0 0 0 0 0 0
dram_eff_bins: 0 0 0 0 0 0 0 0 0 0
mrqq: max=4 avg=0.0486396

========= L2 cache stats =========
L2_cache_bank[0]: Access = 77, Miss = 47, Miss_rate = 0.610, Pending_hits = 6, Reservation_fails = 224
L2_cache_bank[1]: Access = 44, Miss = 44, Miss_rate = 1.000, Pending_hits = 0, Reservation_fails = 0
L2_cache_bank[2]: Access = 61, Miss = 46, Miss_rate = 0.754, Pending_hits = 3, Reservation_fails = 109
L2_cache_bank[3]: Access = 47, Miss = 47, Miss_rate = 1.000, Pending_hits = 0, Reservation_fails = 0
L2_cache_bank[4]: Access = 42, Miss = 42, Miss_rate = 1.000, Pending_hits = 0, Reservation_fails = 0
L2_cache_bank[5]: Access = 46, Miss = 46, Miss_rate = 1.000, Pending_hits = 0, Reservation_fails = 0
L2_cache_bank[6]: Access = 45, Miss = 42, Miss_rate = 0.933, Pending_hits = 0, Reservation_fails = 0
L2_cache_bank[7]: Access = 46, Miss = 44, Miss_rate = 0.957, Pending_hits = 0, Reservation_fails = 0
L2_cache_bank[8]: Access = 56, Miss = 48, Miss_rate = 0.857, Pending_hits = 0, Reservation_fails = 0
L2_cache_bank[9]: Access = 45, Miss = 45, Miss_rate = 1.000, Pending_hits = 0, Reservation_fails = 0
L2_cache_bank[10]: Access = 45, Miss = 45, Miss_rate = 1.000, Pending_hits = 0, Reservation_fails = 0
L2_cache_bank[11]: Access = 42, Miss = 42, Miss_rate = 1.000, Pending_hits = 0, Reservation_fails = 0
L2_total_cache_accesses = 596
L2_total_cache_misses = 538
L2_total_cache_miss_rate = 0.9027
L2_total_cache_pending_hits = 9
L2_total_cache_reservation_fails = 333
L2_total_cache_breakdown:
	L2_cache_stats_breakdown[GLOBAL_ACC_R][MISS] = 523
	L2_cache_stats_breakdown[CONST_ACC_R][HIT] = 11
	L2_cache_stats_breakdown[CONST_ACC_R][HIT_RESERVED] = 3
	L2_cache_stats_breakdown[CONST_ACC_R][MISS] = 1
	L2_cache_stats_breakdown[CONST_ACC_R][RESERVATION_FAIL] = 108
	L2_cache_stats_breakdown[GLOBAL_ACC_W][HIT] = 16
	L2_cache_stats_breakdown[GLOBAL_ACC_W][MISS] = 10
	L2_cache_stats_breakdown[INST_ACC_R][HIT] = 22
	L2_cache_stats_breakdown[INST_ACC_R][HIT_RESERVED] = 6
	L2_cache_stats_breakdown[INST_ACC_R][MISS] = 4
	L2_cache_stats_breakdown[INST_ACC_R][RESERVATION_FAIL] = 225
L2_cache_data_port_util = 0.002
L2_cache_fill_port_util = 0.030

icnt_total_pkts_mem_to_simt=2846
icnt_total_pkts_simt_to_mem=622
LD_mem_lat_dist  0 0 0 0 0 0 0 0 0 0 0 0 0 0 0 0 0 0 0 0 0 0 0 0 0 0 0
ST_mem_lat_dist  0 0 0 0 0 0 0 0 0 0 0 0 0 0 0 0 0 0 0 0 0 0 0 0 0 0 0
----------------------------Interconnect-DETAILS--------------------------------
Class 0:
Packet latency average = 10.7273
	minimum = 6
	maximum = 62
Network latency average = 9.96728
	minimum = 6
	maximum = 40
Slowest packet = 14
Flit latency average = 8.89273
	minimum = 6
	maximum = 36
Slowest flit = 1912
Fragmentation average = 0
	minimum = 0
	maximum = 0
Injected packet rate average = 0.00747767
	minimum = 0.00592818 (at node 9)
	maximum = 0.013042 (at node 15)
Accepted packet rate average = 0.00747767
	minimum = 0.00592818 (at node 9)
	maximum = 0.013042 (at node 15)
Injected flit rate average = 0.0217555
	minimum = 0.00592818 (at node 9)
	maximum = 0.0580962 (at node 15)
Accepted flit rate average= 0.0217555
	minimum = 0.00711382 (at node 19)
	maximum = 0.0447154 (at node 1)
Injected packet length average = 2.9094
Accepted packet length average = 2.9094
Total in-flight flits = 0 (0 measured)
====== Overall Traffic Statistics ======
====== Traffic class 0 ======
Packet latency average = 10.7273 (1 samples)
	minimum = 6 (1 samples)
	maximum = 62 (1 samples)
Network latency average = 9.96728 (1 samples)
	minimum = 6 (1 samples)
	maximum = 40 (1 samples)
Flit latency average = 8.89273 (1 samples)
	minimum = 6 (1 samples)
	maximum = 36 (1 samples)
Fragmentation average = 0 (1 samples)
	minimum = 0 (1 samples)
	maximum = 0 (1 samples)
Injected packet rate average = 0.00747767 (1 samples)
	minimum = 0.00592818 (1 samples)
	maximum = 0.013042 (1 samples)
Accepted packet rate average = 0.00747767 (1 samples)
	minimum = 0.00592818 (1 samples)
	maximum = 0.013042 (1 samples)
Injected flit rate average = 0.0217555 (1 samples)
	minimum = 0.00592818 (1 samples)
	maximum = 0.0580962 (1 samples)
Accepted flit rate average = 0.0217555 (1 samples)
	minimum = 0.00711382 (1 samples)
	maximum = 0.0447154 (1 samples)
Injected packet size average = 2.9094 (1 samples)
Accepted packet size average = 2.9094 (1 samples)
Hops average = 1 (1 samples)
----------------------------END-of-Interconnect-DETAILS-------------------------


gpgpu_simulation_time = 0 days, 0 hrs, 0 min, 6 sec (6 sec)
gpgpu_simulation_rate = 152956 (inst/sec)
gpgpu_simulation_rate = 984 (cycle/sec)
GPGPU-Sim: synchronize waiting for inactive GPU simulation
GPGPU-Sim API: Stream Manager State
GPGPU-Sim: detected inactive GPU simulation thread

GPGPU-Sim PTX: cudaLaunch for 0x0x405636 (mode=performance simulation) on stream 0
[...]
traffic_breakdown_coretomem[GLOBAL_ACC_W] = 16535352 {40:412650,72:79,136:174,}
traffic_breakdown_coretomem[INST_ACC_R] = 480 {8:60,}
traffic_breakdown_memtocore[CONST_ACC_R] = 1080 {72:15,}
traffic_breakdown_memtocore[GLOBAL_ACC_R] = 84079280 {136:618230,}
traffic_breakdown_memtocore[GLOBAL_ACC_W] = 3303224 {8:412903,}
traffic_breakdown_memtocore[INST_ACC_R] = 8160 {136:60,}
maxmrqlatency = 401 
maxdqlatency = 0 
maxmflatency = 1180 
averagemflatency = 396 
max_icnt2mem_latency = 913 
max_icnt2sh_latency = 758308 
mrq_lat_table:45875 	3858 	1216 	3972 	5560 	1523 	707 	287 	46 	0 	0 	0 	0 	0 	0 	0 	0 	0 	0 	0 	0 	0 	0 	0 	0 	0 	0 	0 	0 	0 	0 	0 	
dq_lat_table:0 	0 	0 	0 	0 	0 	0 	0 	0 	0 	0 	0 	0 	0 	0 	0 	0 	0 	0 	0 	0 	0 	0 	0 	0 	0 	0 	0 	0 	0 	0 	0 	
mf_lat_table:0 	0 	0 	0 	0 	0 	0 	132550 	709628 	188913 	57 	0 	0 	0 	0 	0 	0 	0 	0 	0 	0 	0 	0 	0 	0 	0 	0 	0 	0 	0 	0 	0 	
icnt2mem_lat_table:0 	0 	0 	84329 	30170 	78674 	325901 	242822 	265336 	3976 	0 	0 	0 	0 	0 	0 	0 	0 	0 	0 	0 	0 	0 	0 	
icnt2sh_lat_table:0 	0 	0 	36641 	293053 	270807 	17628 	116 	0 	0 	2 	9 	38 	935 	9294 	18414 	44338 	100217 	169133 	70523 	0 	0 	0 	0 	
mf_lat_pw_table:0 	0 	0 	0 	0 	0 	0 	100 	1418 	2 	0 	0 	0 	0 	0 	0 	0 	0 	0 	0 	0 	0 	0 	0 	0 	0 	0 	0 	0 	0 	0 	0 	
maximum concurrent accesses to same row:
dram[0]:        32        28        25        24        32        30        32        32        45        35        30        27        35        37        32        34 
dram[1]:        24        30        49        42        29        27        30        28        23        30        22        30        32        32        48        34 
dram[2]:        23        31        46        32        23        27        32        38        28        32        30        24        32        35        45        60 
dram[3]:        25        22        50        44        34        25        28        28        26        19        24        22        32        34        38        33 
dram[4]:        32        31        29        38        33        33        32        32        30        28        27        23        35        36        33        34 
dram[5]:        33        27        47        43        20        22        26        26        23        23        22        27        32        32        32        34 
maximum service time to same row:
dram[0]:     62362     52122     66265     42033     55571     63907     36635     41519     69509     58891     58554     42106     67406     68506     92272     75353 
dram[1]:     51105     62552     57981     61563    106403    120672     40000     46838     60174     92448     58218     78408     70622    104810     70027     96119 
dram[2]:     46582     52001     56460     45822     40322     51750     47400     37519     56147     59429     83825     83576     88927     91931    133559    141771 
dram[3]:     41270     31669     63823     61964     54627     51126     38700     45587     44089     36729     43713     46070     72573     82730     64955     67955 
dram[4]:     61498     48997     75082     92529     76408     85267     60265     50778     58213     47859     63465     66563    128642     78289     73384     95593 
dram[5]:     73409     55742     96444     93950    115758     57532     40172     47981     62153     59400     57794     49387     74156    103273    139628    136622 
average row accesses per activate:
dram[0]:  3.261084  3.101695  2.876494  3.279661  4.244755  4.282895  3.441558  3.575342  4.315790  4.729560  3.451613  3.226601  5.370370  4.076923  8.571428  5.750000 
dram[1]:  3.621359  4.130208  3.757282  3.654206  3.302752  2.975104  3.247967  3.158103  3.620853  3.156626  3.375000  2.952991  4.289474  4.206897  6.430555  6.652174 
dram[2]:  3.223684  3.372093  3.828877  3.994565  3.474286  4.000000  3.750000  4.596385  3.805000  3.535211  3.043668  2.826613  4.532710  4.670000  7.500000  6.434783 
dram[3]:  3.099174  3.227848  3.847291  3.793970  4.162162  3.848315  3.726415  3.578947  3.336134  3.326271  2.805556  2.703422  3.875000  4.415094  5.321429  5.397590 
dram[4]:  4.187500  4.312883  3.644670  3.594737  4.129032  4.304636  3.659794  4.012423  4.301676  4.190217  3.288660  3.664596  4.260870  5.032967  7.690909  9.658537 
dram[5]:  3.575472  3.136000  3.057692  3.063745  3.424242  3.447917  4.782895  3.937173  3.296748  3.209677  2.944700  3.348718  4.537037  4.265487  7.016949  8.075472 
average row locality = 63044/16865 = 3.738156
number of total memory accesses made:
dram[0]:         0         0         0         0         0         0         0         0         0         0         0         0         0         0         0         0 
dram[1]:         0         0         0         0         0         0         0         0         0         0         0         0         0         0         0         0 
dram[2]:         0         0         0         0         0         0         0         0         0         0         0         0         0         0         0         0 
dram[3]:         0         0         0         0         0         0         0         0         0         0         0         0         0         0         0         0 
dram[4]:         0         0         0         0         0         0         0         0         0         0         0         0         0         0         0         0 
dram[5]:         0         0         0         0         0         0         0         0         0         0         0         0         0         0         0         0 
total accesses: 0
min_bank_accesses = 0!
min_chip_accesses = 0!
number of total read accesses:
dram[0]:       482       520       524       542       484       504       602       598       554       562       524       528       415       440       420       435 
dram[1]:       519       544       526       541       539       557       608       621       578       586       555       551       450       456       462       455 
dram[2]:       526       517       509       510       467       503       578       582       569       574       556       571       461       442       432       439 
dram[3]:       530       533       543       523       473       517       584       575       590       597       572       548       458       440       447       445 
dram[4]:       486       501       509       497       497       497       546       516       581       577       529       492       455       426       421       396 
dram[5]:       533       548       565       544       511       510       562       569       599       582       519       535       449       445       411       427 
total reads: 49528
bank skew: 621/396 = 1.57
chip skew: 8548/7926 = 1.08
number of total write accesses:
dram[0]:       180       212       198       232       123       147       193       185       184       190       118       127        20        37         0         2 
dram[1]:       227       249       248       241       181       160       191       178       186       200       174       140        39        32         1         4 
dram[2]:       209       208       207       225       141       145       172       181       192       179       141       130        24        25         3         5 
dram[3]:       220       232       238       232       143       168       206       173       204       188       135       163        38        28         0         3 
dram[4]:       184       202       209       186       143       153       164       130       189       194       109        98        35        32         2         0 
dram[5]:       225       236       230       225       167       152       165       183       212       214       120       118        41        37         3         1 
total reads: 13516
min_bank_accesses = 0!
chip skew: 2451/2030 = 1.21
average mf latency per bank:
dram[0]:       3048      2788      3113      2968      3716      3612      3023      3019      2949      2996      6574      6480     14909     13837     21391     20937
dram[1]:       2762      2652      2994      3007      3360      3400      3141      3186      3060      2975      5687      6467     13454     14034     20456     20551
dram[2]:       2803      2841      3100      3099      3857      3714      3235      3238      2995      3199      5898      6513     13373     14994     20493     21575
dram[3]:       2781      2636      2845      3033      3713      3447      3064      3293      2884      2884      5960      5980     13063     14461     20423     20861
dram[4]:       3936      2912      4079      3262      4901      3664      4465      3685      3846      2867     40400      7418     17902     14963     28870     23185
dram[5]:       2698      2699      2812      3005      3338      3564      3119      3168      2674      2857      6661      6682     12918     14133     21213     21692
maximum mf latency per bank:
dram[0]:        840       855       849       949       977       902       883       939       988       852       889       944       887      1031       930      1021
dram[1]:        960       953       974       925      1042       902       954       890       918       857       951      1067       956       963       961      1000
dram[2]:        897       925       983       919      1063       935       896       998       942       987       899       958       939       957       926       925
dram[3]:        997       961       971       966       859      1037       882       931      1029      1014       884      1007       931      1023      1161       983
dram[4]:       1110       875      1059       987      1138       943      1005       980      1069      1014      1170       838      1056       874      1180       981
dram[5]:        883       889       902       905       887      1001       939      1013       969       970       929       956       990       972       921       987

Number of Memory Banks Accessed per Memory Operation per Warp (from 0):
0	0	0	0	0	0	0	0	0	0	0	0	0	0	0	0	0	0	0	0	0	0	0	0	0	0	0	0	0	0	0	0	0	0	0	0	0	0	0	0	0	0	0	0	0	0	0	0	0	0	0	0	0	0	0	0	0	0	0	0	0	0	0	0	0	0	0	0	0	0	0	0	0	0	0	0	0	0	0	0	0	0	0	0	0	0	0	0	0	0	0	0	0	0	0	0	
Average # of Memory Banks Accessed per Memory Operation per Warp=-nan

position of mrq chosen
0	0	0	0	0	0	0	0	0	0	0	0	0	0	0	0	

average position of mrq chosen = -nan
Memory Partition 0: 
Cache L2_bank_000:
MSHR contents

Cache L2_bank_001:
MSHR contents

In Dram Latency Queue (total = 0): 
DRAM[0]: 16 bks, busW=4 BL=8 CL=12, tRRD=2 tCCD=6, tRCD=12 tRAS=28 tRP=12 tRC=40
n_cmd=1002657 n_nop=977810 n_act=2713 n_pre=2697 n_req=10282 n_rd=16268 n_write=3169 bw_util=0.1551
n_activity=188536 dram_eff=0.8248
bk0: 964a 991560i bk1: 1040a 989137i bk2: 1048a 989977i bk3: 1084a 988413i bk4: 968a 993289i bk5: 1008a 992841i bk6: 1204a 989292i bk7: 1196a 988550i bk8: 1108a 991107i bk9: 1124a 990971i bk10: 1048a 991290i bk11: 1056a 990983i bk12: 830a 996303i bk13: 880a 995247i bk14: 840a 998275i bk15: 870a 997621i 
dram_util_bins: 0 0 0 0 0 0 0 0 0 0
dram_eff_bins: 0 0 0 0 0 0 0 0 0 0
mrqq: max=16 avg=0.0917233
Memory Partition 1: 
Cache L2_bank_002:
MSHR contents

Cache L2_bank_003:
MSHR contents

In Dram Latency Queue (total = 0): 
DRAM[1]: 16 bks, busW=4 BL=8 CL=12, tRRD=2 tCCD=6, tRCD=12 tRAS=28 tRP=12 tRC=40
n_cmd=1002657 n_nop=975866 n_act=3057 n_pre=3041 n_req=10999 n_rd=17096 n_write=3597 bw_util=0.1651
n_activity=204586 dram_eff=0.8092
bk0: 1038a 990659i bk1: 1088a 990213i bk2: 1052a 989623i bk3: 1082a 989979i bk4: 1078a 991107i bk5: 1114a 990884i bk6: 1216a 989033i bk7: 1242a 988565i bk8: 1156a 990233i bk9: 1172a 988987i bk10: 1110a 990255i bk11: 1102a 990587i bk12: 900a 995865i bk13: 912a 995928i bk14: 924a 997787i bk15: 910a 998268i 
dram_util_bins: 0 0 0 0 0 0 0 0 0 0
dram_eff_bins: 0 0 0 0 0 0 0 0 0 0
mrqq: max=14 avg=0.0586641
Memory Partition 2: 
Cache L2_bank_004:
MSHR contents

Cache L2_bank_005:
MSHR contents

In Dram Latency Queue (total = 0): 
DRAM[2]: 16 bks, busW=4 BL=8 CL=12, tRRD=2 tCCD=6, tRCD=12 tRAS=28 tRP=12 tRC=40
n_cmd=1002657 n_nop=977509 n_act=2741 n_pre=2725 n_req=10423 n_rd=16472 n_write=3210 bw_util=0.157
n_activity=189082 dram_eff=0.8327
bk0: 1052a 990722i bk1: 1034a 990400i bk2: 1018a 990130i bk3: 1020a 990135i bk4: 934a 992810i bk5: 1006a 992133i bk6: 1156a 989398i bk7: 1164a 989918i bk8: 1138a 990039i bk9: 1148a 990047i bk10: 1112a 990393i bk11: 1142a 989596i bk12: 922a 995189i bk13: 884a 995436i bk14: 864a 998444i bk15: 878a 998064i 
dram_util_bins: 0 0 0 0 0 0 0 0 0 0
dram_eff_bins: 0 0 0 0 0 0 0 0 0 0
mrqq: max=16 avg=0.0925311
Memory Partition 3: 
Cache L2_bank_006:
MSHR contents

Cache L2_bank_007:
MSHR contents

In Dram Latency Queue (total = 0): 
DRAM[3]: 16 bks, busW=4 BL=8 CL=12, tRRD=2 tCCD=6, tRCD=12 tRAS=28 tRP=12 tRC=40
n_cmd=1002657 n_nop=976411 n_act=3018 n_pre=3002 n_req=10746 n_rd=16750 n_write=3476 bw_util=0.1614
n_activity=200611 dram_eff=0.8066
bk0: 1060a 989427i bk1: 1066a 988510i bk2: 1086a 989824i bk3: 1046a 989764i bk4: 946a 993285i bk5: 1034a 991930i bk6: 1168a 989998i bk7: 1150a 990212i bk8: 1180a 989066i bk9: 1194a 989330i bk10: 1144a 990328i bk11: 1096a 989332i bk12: 916a 995379i bk13: 880a 996069i bk14: 894a 997534i bk15: 890a 997762i 
dram_util_bins: 0 0 0 0 0 0 0 0 0 0
dram_eff_bins: 0 0 0 0 0 0 0 0 0 0
mrqq: max=16 avg=0.0622107
Memory Partition 4: 
Cache L2_bank_008:
MSHR contents

Cache L2_bank_009:
MSHR contents

In Dram Latency Queue (total = 0): 
DRAM[4]: 16 bks, busW=4 BL=8 CL=12, tRRD=2 tCCD=6, tRCD=12 tRAS=28 tRP=12 tRC=40
n_cmd=1002657 n_nop=979034 n_act=2391 n_pre=2375 n_req=9956 n_rd=15852 n_write=3005 bw_util=0.1505
n_activity=181956 dram_eff=0.8291
bk0: 972a 991226i bk1: 1002a 990645i bk2: 1018a 990485i bk3: 994a 991290i bk4: 994a 992399i bk5: 994a 992054i bk6: 1092a 989889i bk7: 1032a 991234i bk8: 1162a 990469i bk9: 1154a 989985i bk10: 1058a 991965i bk11: 984a 992730i bk12: 910a 995403i bk13: 852a 995794i bk14: 842a 998083i bk15: 792a 998666i 
dram_util_bins: 0 0 0 0 0 0 0 0 0 0
dram_eff_bins: 0 0 0 0 0 0 0 0 0 0
mrqq: max=16 avg=0.097095
Memory Partition 5: 
Cache L2_bank_010:
MSHR contents

Cache L2_bank_011:
MSHR contents

In Dram Latency Queue (total = 0): 
DRAM[5]: 16 bks, busW=4 BL=8 CL=12, tRRD=2 tCCD=6, tRCD=12 tRAS=28 tRP=12 tRC=40
n_cmd=1002657 n_nop=976747 n_act=2945 n_pre=2929 n_req=10638 n_rd=16618 n_write=3418 bw_util=0.1599
n_activity=196247 dram_eff=0.8168
bk0: 1066a 990427i bk1: 1096a 988239i bk2: 1130a 988438i bk3: 1088a 988091i bk4: 1022a 991396i bk5: 1020a 991372i bk6: 1124a 990926i bk7: 1138a 990329i bk8: 1198a 988480i bk9: 1164a 987666i bk10: 1038a 991075i bk11: 1070a 992371i bk12: 898a 995696i bk13: 890a 995865i bk14: 822a 997962i bk15: 854a 998490i 
dram_util_bins: 0 0 0 0 0 0 0 0 0 0
dram_eff_bins: 0 0 0 0 0 0 0 0 0 0
mrqq: max=16 avg=0.0784166

========= L2 cache stats =========
L2_cache_bank[0]: Access = 82031, Miss = 4005, Miss_rate = 0.049, Pending_hits = 20, Reservation_fails = 383
L2_cache_bank[1]: Access = 82486, Miss = 4129, Miss_rate = 0.050, Pending_hits = 16, Reservation_fails = 718
L2_cache_bank[2]: Access = 82048, Miss = 4237, Miss_rate = 0.052, Pending_hits = 21, Reservation_fails = 109
L2_cache_bank[3]: Access = 83208, Miss = 4311, Miss_rate = 0.052, Pending_hits = 14, Reservation_fails = 3
L2_cache_bank[4]: Access = 81812, Miss = 4098, Miss_rate = 0.050, Pending_hits = 10, Reservation_fails = 205
L2_cache_bank[5]: Access = 82948, Miss = 4138, Miss_rate = 0.050, Pending_hits = 11, Reservation_fails = 440
L2_cache_bank[6]: Access = 82540, Miss = 4197, Miss_rate = 0.051, Pending_hits = 18, Reservation_fails = 0
L2_cache_bank[7]: Access = 82847, Miss = 4178, Miss_rate = 0.050, Pending_hits = 11, Reservation_fails = 0
L2_cache_bank[8]: Access = 122102, Miss = 4024, Miss_rate = 0.033, Pending_hits = 10, Reservation_fails = 683
L2_cache_bank[9]: Access = 83386, Miss = 3902, Miss_rate = 0.047, Pending_hits = 13, Reservation_fails = 716
L2_cache_bank[10]: Access = 82537, Miss = 4149, Miss_rate = 0.050, Pending_hits = 26, Reservation_fails = 0
L2_cache_bank[11]: Access = 83263, Miss = 4160, Miss_rate = 0.050, Pending_hits = 17, Reservation_fails = 65
L2_total_cache_accesses = 1031208
L2_total_cache_misses = 49528
L2_total_cache_miss_rate = 0.0480
L2_total_cache_pending_hits = 187
L2_total_cache_reservation_fails = 3322
L2_total_cache_breakdown:
	L2_cache_stats_breakdown[GLOBAL_ACC_R][HIT] = 575687
	L2_cache_stats_breakdown[GLOBAL_ACC_R][HIT_RESERVED] = 39
	L2_cache_stats_breakdown[GLOBAL_ACC_R][MISS] = 42504
	L2_cache_stats_breakdown[GLOBAL_ACC_R][RESERVATION_FAIL] = 2981
	L2_cache_stats_breakdown[CONST_ACC_R][HIT] = 11
	L2_cache_stats_breakdown[CONST_ACC_R][HIT_RESERVED] = 3
	L2_cache_stats_breakdown[CONST_ACC_R][MISS] = 1
	L2_cache_stats_breakdown[CONST_ACC_R][RESERVATION_FAIL] = 108
	L2_cache_stats_breakdown[GLOBAL_ACC_W][HIT] = 405745
	L2_cache_stats_breakdown[GLOBAL_ACC_W][HIT_RESERVED] = 139
	L2_cache_stats_breakdown[GLOBAL_ACC_W][MISS] = 7019
	L2_cache_stats_breakdown[GLOBAL_ACC_W][RESERVATION_FAIL] = 8
	L2_cache_stats_breakdown[INST_ACC_R][HIT] = 50
	L2_cache_stats_breakdown[INST_ACC_R][HIT_RESERVED] = 6
	L2_cache_stats_breakdown[INST_ACC_R][MISS] = 4
	L2_cache_stats_breakdown[INST_ACC_R][RESERVATION_FAIL] = 225
L2_cache_data_port_util = 0.300
L2_cache_fill_port_util = 0.022

icnt_total_pkts_mem_to_simt=3504398
icnt_total_pkts_simt_to_mem=1444712
LD_mem_lat_dist  0 0 0 0 0 0 0 0 0 0 0 0 0 0 0 0 0 0 0 0 0 0 0 0 0 0 0
ST_mem_lat_dist  0 0 0 0 0 0 0 0 0 0 0 0 0 0 0 0 0 0 0 0 0 0 0 0 0 0 0
----------------------------Interconnect-DETAILS--------------------------------
Class 0:
Packet latency average = 9.80621
	minimum = 6
	maximum = 44
Network latency average = 9.27583
	minimum = 6
	maximum = 35
Slowest packet = 2059829
Flit latency average = 8.03055
	minimum = 6
	maximum = 31
Slowest flit = 4942044
Fragmentation average = 0
	minimum = 0
	maximum = 0
Injected packet rate average = 0.0318999
	minimum = 0.0209363 (at node 6)
	maximum = 0.0444897 (at node 13)
Accepted packet rate average = 0.0318999
	minimum = 0.0209363 (at node 6)
	maximum = 0.0444897 (at node 13)
Injected flit rate average = 0.0888501
	minimum = 0.0244257 (at node 6)
	maximum = 0.170689 (at node 20)
Accepted flit rate average= 0.0888501
	minimum = 0.0348939 (at node 25)
	maximum = 0.199186 (at node 13)
Injected packet length average = 2.78528
Accepted packet length average = 2.78528
Total in-flight flits = 0 (0 measured)
====== Overall Traffic Statistics ======
====== Traffic class 0 ======
Packet latency average = 35.4863 (8 samples)
	minimum = 6 (8 samples)
	maximum = 337.75 (8 samples)
Network latency average = 22.8399 (8 samples)
	minimum = 6 (8 samples)
	maximum = 264.75 (8 samples)
Flit latency average = 17.1998 (8 samples)
	minimum = 6 (8 samples)
	maximum = 262.625 (8 samples)
Fragmentation average = 0.033126 (8 samples)
	minimum = 0 (8 samples)
	maximum = 183.25 (8 samples)
Injected packet rate average = 0.0550884 (8 samples)
	minimum = 0.0425235 (8 samples)
	maximum = 0.101222 (8 samples)
Accepted packet rate average = 0.0550884 (8 samples)
	minimum = 0.0425235 (8 samples)
	maximum = 0.101222 (8 samples)
Injected flit rate average = 0.135656 (8 samples)
	minimum = 0.0569586 (8 samples)
	maximum = 0.263002 (8 samples)
Accepted flit rate average = 0.135656 (8 samples)
	minimum = 0.0741905 (8 samples)
	maximum = 0.234672 (8 samples)
Injected packet size average = 2.46252 (8 samples)
Accepted packet size average = 2.46252 (8 samples)
Hops average = 1 (8 samples)
----------------------------END-of-Interconnect-DETAILS-------------------------


gpgpu_simulation_time = 0 days, 0 hrs, 10 min, 12 sec (612 sec)
gpgpu_simulation_rate = 25938 (inst/sec)
gpgpu_simulation_rate = 1241 (cycle/sec)
GPGPU-Sim: synchronize waiting for inactive GPU simulation
GPGPU-Sim API: Stream Manager State
GPGPU-Sim: detected inactive GPU simulation thread
Kernel Executed 8 times
Processing time: 609849.812500 (ms)
Result stored in result.txt
