

        *** GPGPU-Sim Simulator Version 3.2.2  [build 0] ***


GPGPU-Sim PTX: simulation mode 0 (can change with PTX_SIM_MODE_FUNC environment variable:
               1=functional simulation only, 0=detailed performance simulator)
GPGPU-Sim: Configuration options:

-network_mode                           1 # Interconnection network mode
-inter_config_file   config_fermi_islip.icnt # Interconnection network config file
-gpgpu_ptx_use_cuobjdump                    1 # Use cuobjdump to extract ptx and sass from binaries
-gpgpu_experimental_lib_support                    0 # Try to extract code from cuda libraries [Broken because of unknown cudaGetExportTable]
-gpgpu_ptx_convert_to_ptxplus                    0 # Convert SASS (native ISA) to ptxplus and run ptxplus
-gpgpu_ptx_force_max_capability                   20 # Force maximum compute capability
-gpgpu_ptx_inst_debug_to_file                    0 # Dump executed instructions' debug information to file
-gpgpu_ptx_inst_debug_file       inst_debug.txt # Executed instructions' debug output file
-gpgpu_ptx_inst_debug_thread_uid                    1 # Thread UID for executed instructions' debug output
-gpgpu_simd_model                       1 # 1 = post-dominator
-gpgpu_shader_core_pipeline              1536:32 # shader core pipeline config, i.e., {<nthread>:<warpsize>}
-gpgpu_tex_cache:l1  4:128:24,L:R:m:N:L,F:128:4,128:2 # per-shader L1 texture cache  (READ-ONLY) config  {<nsets>:<bsize>:<assoc>,<rep>:<wr>:<alloc>:<wr_alloc>,<mshr>:<N>:<merge>,<mq>:<rf>}
-gpgpu_const_cache:l1 64:64:2,L:R:f:N:L,A:2:32,4 # per-shader L1 constant memory cache  (READ-ONLY) config  {<nsets>:<bsize>:<assoc>,<rep>:<wr>:<alloc>:<wr_alloc>,<mshr>:<N>:<merge>,<mq>} 
-gpgpu_cache:il1     4:128:4,L:R:f:N:L,A:2:32,4 # shader L1 instruction cache config  {<nsets>:<bsize>:<assoc>,<rep>:<wr>:<alloc>:<wr_alloc>,<mshr>:<N>:<merge>,<mq>} 
-gpgpu_cache:dl1     32:128:4,L:L:m:N:H,A:32:8,8 # per-shader L1 data cache config  {<nsets>:<bsize>:<assoc>,<rep>:<wr>:<alloc>:<wr_alloc>,<mshr>:<N>:<merge>,<mq> | none}
-gpgpu_cache:dl1PrefL1                 none # per-shader L1 data cache config  {<nsets>:<bsize>:<assoc>,<rep>:<wr>:<alloc>:<wr_alloc>,<mshr>:<N>:<merge>,<mq> | none}
-gpgpu_cache:dl1PreShared                 none # per-shader L1 data cache config  {<nsets>:<bsize>:<assoc>,<rep>:<wr>:<alloc>:<wr_alloc>,<mshr>:<N>:<merge>,<mq> | none}
-gmem_skip_L1D                          0 # global memory access skip L1D cache (implements -Xptxas -dlcm=cg, default=no skip)
-gpgpu_perfect_mem                      0 # enable perfect memory mode (no cache miss)
-n_regfile_gating_group                    4 # group of lanes that should be read/written together)
-gpgpu_clock_gated_reg_file                    0 # enable clock gated reg file for power calculations
-gpgpu_clock_gated_lanes                    0 # enable clock gated lanes for power calculations
-gpgpu_shader_registers                32768 # Number of registers per shader core. Limits number of concurrent CTAs. (default 8192)
-gpgpu_shader_cta                       8 # Maximum number of concurrent CTAs in shader (default 8)
-gpgpu_num_cta_barriers                   16 # Maximum number of named barriers per CTA (default 16)
-gpgpu_n_clusters                      15 # number of processing clusters
-gpgpu_n_cores_per_cluster                    1 # number of simd cores per cluster
-gpgpu_n_cluster_ejection_buffer_size                    8 # number of packets in ejection buffer
-gpgpu_n_ldst_response_buffer_size                    2 # number of response packets in ld/st unit ejection buffer
-gpgpu_shmem_size                   16384 # Size of shared memory per shader core (default 16kB)
-gpgpu_shmem_size                   49152 # Size of shared memory per shader core (default 16kB)
-gpgpu_shmem_size_PrefL1                16384 # Size of shared memory per shader core (default 16kB)
-gpgpu_shmem_size_PrefShared                16384 # Size of shared memory per shader core (default 16kB)
-gpgpu_shmem_num_banks                   32 # Number of banks in the shared memory in each shader core (default 16)
-gpgpu_shmem_limited_broadcast                    0 # Limit shared memory to do one broadcast per cycle (default on)
-gpgpu_shmem_warp_parts                    1 # Number of portions a warp is divided into for shared memory bank conflict check 
-gpgpu_warpdistro_shader                   -1 # Specify which shader core to collect the warp size distribution from
-gpgpu_warp_issue_shader                    0 # Specify which shader core to collect the warp issue distribution from
-gpgpu_local_mem_map                    1 # Mapping from local memory space address to simulated GPU physical address space (default = enabled)
-gpgpu_num_reg_banks                   16 # Number of register banks (default = 8)
-gpgpu_reg_bank_use_warp_id                    0 # Use warp ID in mapping registers to banks (default = off)
-gpgpu_operand_collector_num_units_sp                    6 # number of collector units (default = 4)
-gpgpu_operand_collector_num_units_sfu                    8 # number of collector units (default = 4)
-gpgpu_operand_collector_num_units_mem                    2 # number of collector units (default = 2)
-gpgpu_operand_collector_num_units_gen                    0 # number of collector units (default = 0)
-gpgpu_operand_collector_num_in_ports_sp                    2 # number of collector unit in ports (default = 1)
-gpgpu_operand_collector_num_in_ports_sfu                    1 # number of collector unit in ports (default = 1)
-gpgpu_operand_collector_num_in_ports_mem                    1 # number of collector unit in ports (default = 1)
-gpgpu_operand_collector_num_in_ports_gen                    0 # number of collector unit in ports (default = 0)
-gpgpu_operand_collector_num_out_ports_sp                    2 # number of collector unit in ports (default = 1)
-gpgpu_operand_collector_num_out_ports_sfu                    1 # number of collector unit in ports (default = 1)
-gpgpu_operand_collector_num_out_ports_mem                    1 # number of collector unit in ports (default = 1)
-gpgpu_operand_collector_num_out_ports_gen                    0 # number of collector unit in ports (default = 0)
-gpgpu_coalesce_arch                   13 # Coalescing arch (default = 13, anything else is off for now)
-gpgpu_num_sched_per_core                    2 # Number of warp schedulers per core
-gpgpu_max_insn_issue_per_warp                    1 # Max number of instructions that can be issued per warp in one cycle by scheduler
-gpgpu_simt_core_sim_order                    1 # Select the simulation order of cores in a cluster (0=Fix, 1=Round-Robin)
-gpgpu_pipeline_widths        2,1,1,2,1,1,2 # Pipeline widths ID_OC_SP,ID_OC_SFU,ID_OC_MEM,OC_EX_SP,OC_EX_SFU,OC_EX_MEM,EX_WB
-gpgpu_num_sp_units                     2 # Number of SP units (default=1)
-gpgpu_num_sfu_units                    1 # Number of SF units (default=1)
-gpgpu_num_mem_units                    1 # Number if ldst units (default=1) WARNING: not hooked up to anything
-gpgpu_scheduler                      gto # Scheduler configuration: < lrr | gto | two_level_active > If two_level_active:<num_active_warps>:<inner_prioritization>:<outer_prioritization>For complete list of prioritization values see shader.h enum scheduler_prioritization_typeDefault: gto
-gpgpu_dram_scheduler                    1 # 0 = fifo, 1 = FR-FCFS (defaul)
-gpgpu_dram_partition_queues              8:8:8:8 # i2$:$2d:d2$:$2i
-l2_ideal                               0 # Use a ideal L2 cache that always hit
-gpgpu_cache:dl2     64:256:8,L:B:m:W:L,A:32:4,4:0,32 # unified banked L2 data cache config  {<nsets>:<bsize>:<assoc>,<rep>:<wr>:<alloc>:<wr_alloc>,<mshr>:<N>:<merge>,<mq>}
-gpgpu_cache:dl2_texture_only                    0 # L2 cache used for texture only
-gpgpu_n_mem                            6 # number of memory modules (e.g. memory controllers) in gpu
-gpgpu_n_sub_partition_per_mchannel                    2 # number of memory subpartition in each memory module
-gpgpu_n_mem_per_ctrlr                    2 # number of memory chips per memory controller
-gpgpu_memlatency_stat                   14 # track and display latency statistics 0x2 enables MC, 0x4 enables queue logs
-gpgpu_frfcfs_dram_sched_queue_size                   16 # 0 = unlimited (default); # entries per chip
-gpgpu_dram_return_queue_size                  116 # 0 = unlimited (default); # entries per chip
-gpgpu_dram_buswidth                    4 # default = 4 bytes (8 bytes per cycle at DDR)
-gpgpu_dram_burst_length                    8 # Burst length of each DRAM request (default = 4 data bus cycle)
-dram_data_command_freq_ratio                    4 # Frequency ratio between DRAM data bus and command bus (default = 2 times, i.e. DDR)
-gpgpu_dram_timing_opt nbk=16:CCD=2:RRD=6:RCD=12:RAS=28:RP=12:RC=40: CL=12:WL=4:CDLR=5:WR=12:nbkgrp=4:CCDL=3:RTPL=2 # DRAM timing parameters = {nbk:tCCD:tRRD:tRCD:tRAS:tRP:tRC:CL:WL:tCDLR:tWR:nbkgrp:tCCDL:tRTPL}
-rop_latency                          120 # ROP queue latency (default 85)
-dram_latency                         100 # DRAM latency (default 30)
-gpgpu_mem_addr_mapping dramid@8;00000000.00000000.00000000.00000000.0000RRRR.RRRRRRRR.BBBCCCCB.CCSSSSSS # mapping memory address to dram model {dramid@<start bit>;<memory address map>}
-gpgpu_mem_addr_test                    0 # run sweep test to check address mapping for aliased address
-gpgpu_mem_address_mask                    1 # 0 = old addressing mask, 1 = new addressing mask, 2 = new add. mask + flipped bank sel and chip sel bits
-gpuwattch_xml_file  gpuwattch_gtx480.xml # GPUWattch XML file
-power_simulation_enabled                    0 # Turn on power simulator (1=On, 0=Off)
-power_per_cycle_dump                    0 # Dump detailed power output each cycle
-power_trace_enabled                    0 # produce a file for the power trace (1=On, 0=Off)
-power_trace_zlevel                     6 # Compression level of the power trace output log (0=no comp, 9=highest)
-steady_power_levels_enabled                    0 # produce a file for the steady power levels (1=On, 0=Off)
-steady_state_definition                  8:4 # allowed deviation:number of samples
-gpgpu_max_cycle                        0 # terminates gpu simulation early (0 = no limit)
-gpgpu_max_insn                         0 # terminates gpu simulation early (0 = no limit)
-gpgpu_max_cta                          0 # terminates gpu simulation early (0 = no limit)
-gpgpu_runtime_stat                   500 # display runtime statistics such as dram utilization {<freq>:<flag>}
-liveness_message_freq                    1 # Minimum number of seconds between simulation liveness messages (0 = always print)
-gpgpu_flush_l1_cache                    0 # Flush L1 cache at the end of each kernel call
-gpgpu_flush_l2_cache                    0 # Flush L2 cache at the end of each kernel call
-gpgpu_deadlock_detect                    1 # Stop the simulation at deadlock (1=on (default), 0=off)
-gpgpu_ptx_instruction_classification                    0 # if enabled will classify ptx instruction types per kernel (Max 255 kernels now)
-gpgpu_ptx_sim_mode                     0 # Select between Performance (default) or Functional simulation (1)
-gpgpu_clock_domains 700.0:700.0:700.0:924.0 # Clock Domain Frequencies in MhZ {<Core Clock>:<ICNT Clock>:<L2 Clock>:<DRAM Clock>}
-gpgpu_max_concurrent_kernel                    8 # maximum kernels that can run concurrently on GPU
-gpgpu_cflog_interval                    0 # Interval between each snapshot in control flow logger
-visualizer_enabled                     0 # Turn on visualizer output (1=On, 0=Off)
-visualizer_outputfile                 NULL # Specifies the output log file for visualizer
-visualizer_zlevel                      6 # Compression level of the visualizer output log (0=no comp, 9=highest)
-trace_enabled                          0 # Turn on traces
-trace_components                    none # comma seperated list of traces to enable. Complete list found in trace_streams.tup. Default none
-trace_sampling_core                    0 # The core which is printed using CORE_DPRINTF. Default 0
-trace_sampling_memory_partition                   -1 # The memory partition which is printed using MEMPART_DPRINTF. Default -1 (i.e. all)
-enable_ptx_file_line_stats                    1 # Turn on PTX source line statistic profiling. (1 = On)
-ptx_line_stats_filename gpgpu_inst_stats.txt # Output file for PTX source line statistics.
-save_embedded_ptx                      0 # saves ptx files embedded in binary as <n>.ptx
-keep                                   0 # keep intermediate files created by GPGPU-Sim when interfacing with external programs
-gpgpu_ptx_save_converted_ptxplus                    0 # Saved converted ptxplus to a file
-ptx_opcode_latency_int         4,13,4,5,145 # Opcode latencies for integers <ADD,MAX,MUL,MAD,DIV>Default 1,1,19,25,145
-ptx_opcode_latency_fp          4,13,4,5,39 # Opcode latencies for single precision floating points <ADD,MAX,MUL,MAD,DIV>Default 1,1,1,1,30
-ptx_opcode_latency_dp         8,19,8,8,330 # Opcode latencies for double precision floating points <ADD,MAX,MUL,MAD,DIV>Default 8,8,8,8,335
-ptx_opcode_initiation_int            1,2,2,1,8 # Opcode initiation intervals for integers <ADD,MAX,MUL,MAD,DIV>Default 1,1,4,4,32
-ptx_opcode_initiation_fp            1,2,1,1,4 # Opcode initiation intervals for single precision floating points <ADD,MAX,MUL,MAD,DIV>Default 1,1,1,1,5
-ptx_opcode_initiation_dp         8,16,8,8,130 # Opcode initiation intervals for double precision floating points <ADD,MAX,MUL,MAD,DIV>Default 8,8,8,8,130
DRAM Timing Options:
nbk                                    16 # number of banks
CCD                                     2 # column to column delay
RRD                                     6 # minimal delay between activation of rows in different banks
RCD                                    12 # row to column delay
RAS                                    28 # time needed to activate row
RP                                     12 # time needed to precharge (deactivate) row
RC                                     40 # row cycle time
CDLR                                    5 # switching from write to read (changes tWTR)
WR                                     12 # last data-in to row precharge
CL                                     12 # CAS latency
WL                                      4 # Write latency
nbkgrp                                  4 # number of bank groups
CCDL                                    3 # column to column delay between accesses to different bank groups
RTPL                                    2 # read to precharge delay between accesses to different bank groups
Total number of memory sub partition = 12
addr_dec_mask[CHIP]  = 0000000000000000 	high:64 low:0
addr_dec_mask[BK]    = 000000000000e100 	high:16 low:8
addr_dec_mask[ROW]   = 000000000fff0000 	high:28 low:16
addr_dec_mask[COL]   = 0000000000001eff 	high:13 low:0
addr_dec_mask[BURST] = 000000000000003f 	high:6 low:0
sub_partition_id_mask = 0000000000000100
GPGPU-Sim uArch: clock freqs: 700000000.000000:700000000.000000:700000000.000000:924000000.000000
GPGPU-Sim uArch: clock periods: 0.00000000142857142857:0.00000000142857142857:0.00000000142857142857:0.00000000108225108225
*** Initializing Memory Statistics ***
GPGPU-Sim uArch: interconnect node map (shaderID+MemID to icntID)
GPGPU-Sim uArch: Memory nodes ID start from index: 15
GPGPU-Sim uArch:    0   1   2   3   4
GPGPU-Sim uArch:    5   6   7   8   9
GPGPU-Sim uArch:   10  11  12  13  14
GPGPU-Sim uArch:   15  16  17  18  19
GPGPU-Sim uArch:   20  21  22  23  24
GPGPU-Sim uArch:   25  26
GPGPU-Sim uArch: interconnect node reverse map (icntID to shaderID+MemID)
GPGPU-Sim uArch: Memory nodes start from ID: 15
GPGPU-Sim uArch:    0   1   2   3   4
GPGPU-Sim uArch:    5   6   7   8   9
GPGPU-Sim uArch:   10  11  12  13  14
GPGPU-Sim uArch:   15  16  17  18  19
GPGPU-Sim uArch:   20  21  22  23  24
GPGPU-Sim uArch:   25  26
316bcbff5f8f022bb22b20bb4721e93e  /sciclone/data20/adwait/applications/benchmarks/CUDA/RAY/gpgpu_ptx_sim__RAY
GPGPU-Sim uArch: performance model initialization complete.
GPGPU-Sim PTX: __cudaRegisterFatBinary, fat_cubin_handle = 1, filename=rayTracing.cu
self exe links to: /sciclone/data20/adwait/applications/benchmarks/CUDA/RAY/gpgpu_ptx_sim__RAY
Running md5sum using "md5sum /sciclone/data20/adwait/applications/benchmarks/CUDA/RAY/gpgpu_ptx_sim__RAY "
Parsing file _cuobjdump_complete_output_TKWeQA
######### cuobjdump parser ########
## Adding new section ELF
Adding arch: sm_20
Adding identifier: rayTracing.cu
## Adding new section PTX
Adding ptx filename: _cuobjdump_1.ptx
Adding arch: sm_20
Adding identifier: rayTracing.cu
Done parsing!!!
GPGPU-Sim PTX: __cudaRegisterFunction _Z6renderPjP4Nodejjff : hostFun 0x0x40ce13, fat_cubin_handle = 1
GPGPU-Sim PTX: allocating stack frame region for .param "__cudaretf__Zmi6float3S_" from 0x0 to 0xc
GPGPU-Sim PTX: allocating stack frame region for .param "__cudaparmf1__Zmi6float3S_" from 0xc to 0x18
GPGPU-Sim PTX: allocating stack frame region for .param "__cudaparmf2__Zmi6float3S_" from 0x18 to 0x24
GPGPU-Sim PTX: allocating stack frame region for .param "__cudaretf__Z9normalize6float3" from 0x0 to 0xc
GPGPU-Sim PTX: allocating stack frame region for .param "__cudaparmf1__Z9normalize6float3" from 0xc to 0x18
GPGPU-Sim PTX: allocating stack frame region for .param "__cudaretf__Z18intersectionSphere5Rayon6float3f" from 0x0 to 0x4
GPGPU-Sim PTX: allocating stack frame region for .param "__cudaparmf1__Z18intersectionSphere5Rayon6float3f" from 0x4 to 0x1c
GPGPU-Sim PTX: allocating stack frame region for .param "__cudaparmf2__Z18intersectionSphere5Rayon6float3f" from 0x1c to 0x28
GPGPU-Sim PTX: allocating stack frame region for .param "__cudaparmf3__Z18intersectionSphere5Rayon6float3f" from 0x28 to 0x2c
GPGPU-Sim PTX: allocating stack frame region for .param "__cudaretf__Z16intersectionPlan5Rayon6float3S0_" from 0x0 to 0x4
GPGPU-Sim PTX: allocating stack frame region for .param "__cudaparmf1__Z16intersectionPlan5Rayon6float3S0_" from 0x4 to 0x1c
GPGPU-Sim PTX: allocating stack frame region for .param "__cudaparmf2__Z16intersectionPlan5Rayon6float3S0_" from 0x1c to 0x28
GPGPU-Sim PTX: allocating stack frame region for .param "__cudaparmf3__Z16intersectionPlan5Rayon6float3S0_" from 0x28 to 0x34
GPGPU-Sim PTX: allocating stack frame region for .param "__cudaretf__Z10getNormale6float3S_" from 0x0 to 0xc
GPGPU-Sim PTX: allocating stack frame region for .param "__cudaparmf1__Z10getNormale6float3S_" from 0xc to 0x18
GPGPU-Sim PTX: allocating stack frame region for .param "__cudaparmf2__Z10getNormale6float3S_" from 0x18 to 0x24
GPGPU-Sim PTX: allocating stack frame region for .param "__cudaretf__Z11getNormaleP6float3" from 0x0 to 0xc
GPGPU-Sim PTX: allocating stack frame region for .param "__cudaparmf1__Z11getNormaleP6float3" from 0xc to 0x18
GPGPU-Sim PTX: allocating stack frame region for .param "__cudaretf__Z14rgbaFloatToInt6float4" from 0x0 to 0x4
GPGPU-Sim PTX: allocating stack frame region for .param "__cudaparmf1__Z14rgbaFloatToInt6float4" from 0x4 to 0x14
GPGPU-Sim PTX: allocating stack frame region for .param "__cudaretf__Z12notShadowRayP4Node6float3S1_f" from 0x0 to 0x4
GPGPU-Sim PTX: allocating stack frame region for .param "__cudaparmf1__Z12notShadowRayP4Node6float3S1_f" from 0x4 to 0xc
GPGPU-Sim PTX: allocating stack frame region for .param "__cudaparmf2__Z12notShadowRayP4Node6float3S1_f" from 0xc to 0x18
GPGPU-Sim PTX: allocating stack frame region for .param "__cudaparmf3__Z12notShadowRayP4Node6float3S1_f" from 0x18 to 0x24
GPGPU-Sim PTX: allocating stack frame region for .param "__cudaparmf4__Z12notShadowRayP4Node6float3S1_f" from 0x24 to 0x28
GPGPU-Sim PTX: allocating stack frame region for .param "__cudaretf__Z15float2int_pow20f" from 0x0 to 0x4
GPGPU-Sim PTX: allocating stack frame region for .param "__cudaparmf1__Z15float2int_pow20f" from 0x4 to 0x8
GPGPU-Sim PTX: allocating stack frame region for .param "__cudaretf__Z15float2int_pow50f" from 0x0 to 0x4
GPGPU-Sim PTX: allocating stack frame region for .param "__cudaparmf1__Z15float2int_pow50f" from 0x4 to 0x8
GPGPU-Sim PTX: allocating stack frame region for .param "__cudaparmf1__ZN4dim3C1Ejjj" from 0x0 to 0x8
GPGPU-Sim PTX: allocating stack frame region for .param "__cudaparmf2__ZN4dim3C1Ejjj" from 0x8 to 0xc
GPGPU-Sim PTX: allocating stack frame region for .param "__cudaparmf3__ZN4dim3C1Ejjj" from 0xc to 0x10
GPGPU-Sim PTX: allocating stack frame region for .param "__cudaparmf4__ZN4dim3C1Ejjj" from 0x10 to 0x14
GPGPU-Sim PTX: instruction assembly for function '_Zmi6float3S_'...   done.
GPGPU-Sim PTX: finding reconvergence points for '_Zmi6float3S_'...
GPGPU-Sim PTX: Finding dominators for '_Zmi6float3S_'...
GPGPU-Sim PTX: Finding immediate dominators for '_Zmi6float3S_'...
GPGPU-Sim PTX: Finding postdominators for '_Zmi6float3S_'...
GPGPU-Sim PTX: Finding immediate postdominators for '_Zmi6float3S_'...
GPGPU-Sim PTX: pre-decoding instructions for '_Zmi6float3S_'...
GPGPU-Sim PTX: reconvergence points for _Zmi6float3S_...
GPGPU-Sim PTX: ... end of reconvergence points for _Zmi6float3S_
GPGPU-Sim PTX: ... done pre-decoding instructions for '_Zmi6float3S_'.
GPGPU-Sim PTX: instruction assembly for function '_Z9normalize6float3'...   done.
GPGPU-Sim PTX: finding reconvergence points for '_Z9normalize6float3'...
GPGPU-Sim PTX: Finding dominators for '_Z9normalize6float3'...
GPGPU-Sim PTX: Finding immediate dominators for '_Z9normalize6float3'...
GPGPU-Sim PTX: Finding postdominators for '_Z9normalize6float3'...
GPGPU-Sim PTX: Finding immediate postdominators for '_Z9normalize6float3'...
GPGPU-Sim PTX: pre-decoding instructions for '_Z9normalize6float3'...
GPGPU-Sim PTX: reconvergence points for _Z9normalize6float3...
GPGPU-Sim PTX: ... end of reconvergence points for _Z9normalize6float3
GPGPU-Sim PTX: ... done pre-decoding instructions for '_Z9normalize6float3'.
GPGPU-Sim PTX: instruction assembly for function '_Z18intersectionSphere5Rayon6float3f'...   done.
GPGPU-Sim PTX: finding reconvergence points for '_Z18intersectionSphere5Rayon6float3f'...
GPGPU-Sim PTX: Finding dominators for '_Z18intersectionSphere5Rayon6float3f'...
GPGPU-Sim PTX: Finding immediate dominators for '_Z18intersectionSphere5Rayon6float3f'...
GPGPU-Sim PTX: Finding postdominators for '_Z18intersectionSphere5Rayon6float3f'...
GPGPU-Sim PTX: Finding immediate postdominators for '_Z18intersectionSphere5Rayon6float3f'...
GPGPU-Sim PTX: pre-decoding instructions for '_Z18intersectionSphere5Rayon6float3f'...
GPGPU-Sim PTX: reconvergence points for _Z18intersectionSphere5Rayon6float3f...
GPGPU-Sim PTX:  1 (potential) branch divergence @  PC=0x250 (_1.ptx:173) @%p2 bra $Lt_2_3074;
GPGPU-Sim PTX:    immediate post dominator      @  PC=0x2c0 (_1.ptx:193) mov.f32 %f39, %f32;
GPGPU-Sim PTX:  2 (potential) branch divergence @  PC=0x260 (_1.ptx:175) bra.uni $Lt_2_2818;
GPGPU-Sim PTX:    immediate post dominator      @  PC=0x2c0 (_1.ptx:193) mov.f32 %f39, %f32;
GPGPU-Sim PTX:  3 (potential) branch divergence @  PC=0x280 (_1.ptx:180) @!%p3 bra $Lt_2_3586;
GPGPU-Sim PTX:    immediate post dominator      @  PC=0x2c0 (_1.ptx:193) mov.f32 %f39, %f32;
GPGPU-Sim PTX:  4 (potential) branch divergence @  PC=0x290 (_1.ptx:182) bra.uni $Lt_2_3330;
GPGPU-Sim PTX:    immediate post dominator      @  PC=0x2c0 (_1.ptx:193) mov.f32 %f39, %f32;
GPGPU-Sim PTX: ... end of reconvergence points for _Z18intersectionSphere5Rayon6float3f
GPGPU-Sim PTX: ... done pre-decoding instructions for '_Z18intersectionSphere5Rayon6float3f'.
GPGPU-Sim PTX: instruction assembly for function '_Z16intersectionPlan5Rayon6float3S0_'...   done.
GPGPU-Sim PTX: finding reconvergence points for '_Z16intersectionPlan5Rayon6float3S0_'...
GPGPU-Sim PTX: Finding dominators for '_Z16intersectionPlan5Rayon6float3S0_'...
GPGPU-Sim PTX: Finding immediate dominators for '_Z16intersectionPlan5Rayon6float3S0_'...
GPGPU-Sim PTX: Finding postdominators for '_Z16intersectionPlan5Rayon6float3S0_'...
GPGPU-Sim PTX: Finding immediate postdominators for '_Z16intersectionPlan5Rayon6float3S0_'...
GPGPU-Sim PTX: pre-decoding instructions for '_Z16intersectionPlan5Rayon6float3S0_'...
GPGPU-Sim PTX: reconvergence points for _Z16intersectionPlan5Rayon6float3S0_...
GPGPU-Sim PTX:  1 (potential) branch divergence @  PC=0x320 (_1.ptx:214) @!%p1 bra $Lt_3_2050;
GPGPU-Sim PTX:    immediate post dominator      @  PC=0x368 (_1.ptx:227) mov.f32 %f14, %f9;
GPGPU-Sim PTX:  2 (potential) branch divergence @  PC=0x330 (_1.ptx:216) bra.uni $Lt_3_1794;
GPGPU-Sim PTX:    immediate post dominator      @  PC=0x368 (_1.ptx:227) mov.f32 %f14, %f9;
GPGPU-Sim PTX: ... end of reconvergence points for _Z16intersectionPlan5Rayon6float3S0_
GPGPU-Sim PTX: ... done pre-decoding instructions for '_Z16intersectionPlan5Rayon6float3S0_'.
GPGPU-Sim PTX: instruction assembly for function '_Z10getNormale6float3S_'...   done.
GPGPU-Sim PTX: finding reconvergence points for '_Z10getNormale6float3S_'...
GPGPU-Sim PTX: Finding dominators for '_Z10getNormale6float3S_'...
GPGPU-Sim PTX: Finding immediate dominators for '_Z10getNormale6float3S_'...
GPGPU-Sim PTX: Finding postdominators for '_Z10getNormale6float3S_'...
GPGPU-Sim PTX: Finding immediate postdominators for '_Z10getNormale6float3S_'...
GPGPU-Sim PTX: pre-decoding instructions for '_Z10getNormale6float3S_'...
GPGPU-Sim PTX: reconvergence points for _Z10getNormale6float3S_...
GPGPU-Sim PTX: ... end of reconvergence points for _Z10getNormale6float3S_
GPGPU-Sim PTX: ... done pre-decoding instructions for '_Z10getNormale6float3S_'.
GPGPU-Sim PTX: instruction assembly for function '_Z11getNormaleP6float3'...   done.
GPGPU-Sim PTX: finding reconvergence points for '_Z11getNormaleP6float3'...
GPGPU-Sim PTX: Finding dominators for '_Z11getNormaleP6float3'...
GPGPU-Sim PTX: Finding immediate dominators for '_Z11getNormaleP6float3'...
GPGPU-Sim PTX: Finding postdominators for '_Z11getNormaleP6float3'...
GPGPU-Sim PTX: Finding immediate postdominators for '_Z11getNormaleP6float3'...
GPGPU-Sim PTX: pre-decoding instructions for '_Z11getNormaleP6float3'...
GPGPU-Sim PTX: reconvergence points for _Z11getNormaleP6float3...
GPGPU-Sim PTX: ... end of reconvergence points for _Z11getNormaleP6float3
GPGPU-Sim PTX: ... done pre-decoding instructions for '_Z11getNormaleP6float3'.
GPGPU-Sim PTX: instruction assembly for function '_Z14rgbaFloatToInt6float4'...   done.
GPGPU-Sim PTX: finding reconvergence points for '_Z14rgbaFloatToInt6float4'...
GPGPU-Sim PTX: Finding dominators for '_Z14rgbaFloatToInt6float4'...
GPGPU-Sim PTX: Finding immediate dominators for '_Z14rgbaFloatToInt6float4'...
GPGPU-Sim PTX: Finding postdominators for '_Z14rgbaFloatToInt6float4'...
GPGPU-Sim PTX: Finding immediate postdominators for '_Z14rgbaFloatToInt6float4'...
GPGPU-Sim PTX: pre-decoding instructions for '_Z14rgbaFloatToInt6float4'...
GPGPU-Sim PTX: reconvergence points for _Z14rgbaFloatToInt6float4...
GPGPU-Sim PTX: ... end of reconvergence points for _Z14rgbaFloatToInt6float4
GPGPU-Sim PTX: ... done pre-decoding instructions for '_Z14rgbaFloatToInt6float4'.
GPGPU-Sim PTX: allocating global region for "cnode" from 0x100 to 0x1a0 (global memory space)
GPGPU-Sim PTX: instruction assembly for function '_Z12notShadowRayP4Node6float3S1_f'...   done.
GPGPU-Sim PTX: finding reconvergence points for '_Z12notShadowRayP4Node6float3S1_f'...
GPGPU-Sim PTX: Finding dominators for '_Z12notShadowRayP4Node6float3S1_f'...
GPGPU-Sim PTX: Finding immediate dominators for '_Z12notShadowRayP4Node6float3S1_f'...
GPGPU-Sim PTX: Finding postdominators for '_Z12notShadowRayP4Node6float3S1_f'...
GPGPU-Sim PTX: Finding immediate postdominators for '_Z12notShadowRayP4Node6float3S1_f'...
GPGPU-Sim PTX: pre-decoding instructions for '_Z12notShadowRayP4Node6float3S1_f'...
GPGPU-Sim PTX: reconvergence points for _Z12notShadowRayP4Node6float3S1_f...
GPGPU-Sim PTX:  1 (potential) branch divergence @  PC=0x638 (_1.ptx:364) @%p1 bra $Lt_7_8450;
GPGPU-Sim PTX:    immediate post dominator      @  PC=0x828 (_1.ptx:441) mov.f32 %f58, 0f00000000;    // 0
GPGPU-Sim PTX:  2 (potential) branch divergence @  PC=0x658 (_1.ptx:369) @!%p2 bra $Lt_7_8962;
GPGPU-Sim PTX:    immediate post dominator      @  PC=0x6b8 (_1.ptx:385) mov.f32 %f28, %f20;
GPGPU-Sim PTX:  3 (potential) branch divergence @  PC=0x668 (_1.ptx:371) bra.uni $Lt_7_8706;
GPGPU-Sim PTX:    immediate post dominator      @  PC=0x6b8 (_1.ptx:385) mov.f32 %f28, %f20;
GPGPU-Sim PTX:  4 (potential) branch divergence @  PC=0x6c0 (_1.ptx:386) bra.uni $Lt_7_8194;
GPGPU-Sim PTX:    immediate post dominator      @  PC=0x828 (_1.ptx:441) mov.f32 %f58, 0f00000000;    // 0
GPGPU-Sim PTX:  5 (potential) branch divergence @  PC=0x7b0 (_1.ptx:418) @%p5 bra $Lt_7_9474;
GPGPU-Sim PTX:    immediate post dominator      @  PC=0x820 (_1.ptx:438) mov.f32 %f28, %f51;
GPGPU-Sim PTX:  6 (potential) branch divergence @  PC=0x7c0 (_1.ptx:420) bra.uni $Lt_7_9730;
GPGPU-Sim PTX:    immediate post dominator      @  PC=0x820 (_1.ptx:438) mov.f32 %f28, %f51;
GPGPU-Sim PTX:  7 (potential) branch divergence @  PC=0x7e0 (_1.ptx:425) @!%p6 bra $Lt_7_9986;
GPGPU-Sim PTX:    immediate post dominator      @  PC=0x820 (_1.ptx:438) mov.f32 %f28, %f51;
GPGPU-Sim PTX:  8 (potential) branch divergence @  PC=0x7f0 (_1.ptx:427) bra.uni $Lt_7_9730;
GPGPU-Sim PTX:    immediate post dominator      @  PC=0x820 (_1.ptx:438) mov.f32 %f28, %f51;
GPGPU-Sim PTX:  9 (potential) branch divergence @  PC=0x838 (_1.ptx:443) @!%p7 bra $Lt_7_10242;
GPGPU-Sim PTX:    immediate post dominator      @  PC=0x8e8 (_1.ptx:468) add.s32 %r1, %r1, 1;
GPGPU-Sim PTX: 10 (potential) branch divergence @  PC=0x8d8 (_1.ptx:463) @!%p8 bra $Lt_7_10242;
GPGPU-Sim PTX:    immediate post dominator      @  PC=0x8e8 (_1.ptx:468) add.s32 %r1, %r1, 1;
GPGPU-Sim PTX: 11 (potential) branch divergence @  PC=0x908 (_1.ptx:472) @%p9 bra $Lt_7_10754;
GPGPU-Sim PTX:    immediate post dominator      @  PC=0x960 (_1.ptx:486) selp.s32 %r10, 1, 0, %p11;
GPGPU-Sim PTX: 12 (potential) branch divergence @  PC=0x930 (_1.ptx:477) @%p10 bra $L_7_7170;
GPGPU-Sim PTX:    immediate post dominator      @  PC=0x960 (_1.ptx:486) selp.s32 %r10, 1, 0, %p11;
GPGPU-Sim PTX: 13 (potential) branch divergence @  PC=0x938 (_1.ptx:478) bra.uni $L_7_7938;
GPGPU-Sim PTX:    immediate post dominator      @  PC=0x960 (_1.ptx:486) selp.s32 %r10, 1, 0, %p11;
GPGPU-Sim PTX: ... end of reconvergence points for _Z12notShadowRayP4Node6float3S1_f
GPGPU-Sim PTX: ... done pre-decoding instructions for '_Z12notShadowRayP4Node6float3S1_f'.
GPGPU-Sim PTX: instruction assembly for function '_Z15float2int_pow20f'...   done.
GPGPU-Sim PTX: finding reconvergence points for '_Z15float2int_pow20f'...
GPGPU-Sim PTX: Finding dominators for '_Z15float2int_pow20f'...
GPGPU-Sim PTX: Finding immediate dominators for '_Z15float2int_pow20f'...
GPGPU-Sim PTX: Finding postdominators for '_Z15float2int_pow20f'...
GPGPU-Sim PTX: Finding immediate postdominators for '_Z15float2int_pow20f'...
GPGPU-Sim PTX: pre-decoding instructions for '_Z15float2int_pow20f'...
GPGPU-Sim PTX: reconvergence points for _Z15float2int_pow20f...
GPGPU-Sim PTX: ... end of reconvergence points for _Z15float2int_pow20f
GPGPU-Sim PTX: ... done pre-decoding instructions for '_Z15float2int_pow20f'.
GPGPU-Sim PTX: instruction assembly for function '_Z15float2int_pow50f'...   done.
GPGPU-Sim PTX: finding reconvergence points for '_Z15float2int_pow50f'...
GPGPU-Sim PTX: Finding dominators for '_Z15float2int_pow50f'...
GPGPU-Sim PTX: Finding immediate dominators for '_Z15float2int_pow50f'...
GPGPU-Sim PTX: Finding postdominators for '_Z15float2int_pow50f'...
GPGPU-Sim PTX: Finding immediate postdominators for '_Z15float2int_pow50f'...
GPGPU-Sim PTX: pre-decoding instructions for '_Z15float2int_pow50f'...
GPGPU-Sim PTX: reconvergence points for _Z15float2int_pow50f...
GPGPU-Sim PTX: ... end of reconvergence points for _Z15float2int_pow50f
GPGPU-Sim PTX: ... done pre-decoding instructions for '_Z15float2int_pow50f'.
GPGPU-Sim PTX: allocating constant region for "MView" from 0x200 to 0x230 (global memory space) 1
GPGPU-Sim PTX: allocating stack frame region for .local "__cuda___cuda_local_var_35463_9_non_const_pile_32240" from 0x0 to 0x50
GPGPU-Sim PTX: instruction assembly for function '_Z6renderPjP4Nodejjff'...   done.
GPGPU-Sim PTX: finding reconvergence points for '_Z6renderPjP4Nodejjff'...
GPGPU-Sim PTX: Finding dominators for '_Z6renderPjP4Nodejjff'...
GPGPU-Sim PTX: Finding immediate dominators for '_Z6renderPjP4Nodejjff'...
GPGPU-Sim PTX: Finding postdominators for '_Z6renderPjP4Nodejjff'...
GPGPU-Sim PTX: Finding immediate postdominators for '_Z6renderPjP4Nodejjff'...
GPGPU-Sim PTX: pre-decoding instructions for '_Z6renderPjP4Nodejjff'...
GPGPU-Sim PTX: reconvergence points for _Z6renderPjP4Nodejjff...
GPGPU-Sim PTX:  1 (potential) branch divergence @  PC=0xdb0 (_1.ptx:663) @%p1 bra $Lt_10_44034;
GPGPU-Sim PTX:    immediate post dominator      @  PC=0x2370 (_1.ptx:1495) exit;
GPGPU-Sim PTX:  2 (potential) branch divergence @  PC=0x1028 (_1.ptx:751) @%p2 bra $Lt_10_45570;
GPGPU-Sim PTX:    immediate post dominator      @  PC=0x11b8 (_1.ptx:815) mov.f32 %f108, 0f00000000;   // 0
GPGPU-Sim PTX:  3 (potential) branch divergence @  PC=0x1048 (_1.ptx:756) @!%p3 bra $Lt_10_46082;
GPGPU-Sim PTX:    immediate post dominator      @  PC=0x1090 (_1.ptx:769) mov.f32 %f87, %f82;
GPGPU-Sim PTX:  4 (potential) branch divergence @  PC=0x1058 (_1.ptx:758) bra.uni $Lt_10_45826;
GPGPU-Sim PTX:    immediate post dominator      @  PC=0x1090 (_1.ptx:769) mov.f32 %f87, %f82;
GPGPU-Sim PTX:  5 (potential) branch divergence @  PC=0x1098 (_1.ptx:770) bra.uni $Lt_10_45314;
GPGPU-Sim PTX:    immediate post dominator      @  PC=0x11b8 (_1.ptx:815) mov.f32 %f108, 0f00000000;   // 0
GPGPU-Sim PTX:  6 (potential) branch divergence @  PC=0x1140 (_1.ptx:793) @%p6 bra $Lt_10_46594;
GPGPU-Sim PTX:    immediate post dominator      @  PC=0x11b0 (_1.ptx:813) mov.f32 %f87, %f101;
GPGPU-Sim PTX:  7 (potential) branch divergence @  PC=0x1150 (_1.ptx:795) bra.uni $Lt_10_46850;
GPGPU-Sim PTX:    immediate post dominator      @  PC=0x11b0 (_1.ptx:813) mov.f32 %f87, %f101;
GPGPU-Sim PTX:  8 (potential) branch divergence @  PC=0x1170 (_1.ptx:800) @!%p7 bra $Lt_10_47106;
GPGPU-Sim PTX:    immediate post dominator      @  PC=0x11b0 (_1.ptx:813) mov.f32 %f87, %f101;
GPGPU-Sim PTX:  9 (potential) branch divergence @  PC=0x1180 (_1.ptx:802) bra.uni $Lt_10_46850;
GPGPU-Sim PTX:    immediate post dominator      @  PC=0x11b0 (_1.ptx:813) mov.f32 %f87, %f101;
GPGPU-Sim PTX: 10 (potential) branch divergence @  PC=0x11f8 (_1.ptx:823) @%p8 bra $Lt_10_47362;
GPGPU-Sim PTX:    immediate post dominator      @  PC=0x1210 (_1.ptx:829) add.s32 %r25, %r25, 1;
GPGPU-Sim PTX: 11 (potential) branch divergence @  PC=0x1230 (_1.ptx:833) @%p9 bra $Lt_10_45058;
GPGPU-Sim PTX:    immediate post dominator      @  PC=0x1238 (_1.ptx:834) mov.f32 %f109, 0f00000000;   // 0
GPGPU-Sim PTX: 12 (potential) branch divergence @  PC=0x1280 (_1.ptx:843) @%p10 bra $Lt_10_48130;
GPGPU-Sim PTX:    immediate post dominator      @  PC=0x2140 (_1.ptx:1416) add.s32 %r23, %r23, 1;
GPGPU-Sim PTX: 13 (potential) branch divergence @  PC=0x1330 (_1.ptx:868) @%p11 bra $Lt_10_48898;
GPGPU-Sim PTX:    immediate post dominator      @  PC=0x13b8 (_1.ptx:888) sub.f32 %f136, %f21, %f119;
GPGPU-Sim PTX: 14 (potential) branch divergence @  PC=0x1350 (_1.ptx:873) bra.uni $Lt_10_48642;
GPGPU-Sim PTX:    immediate post dominator      @  PC=0x13b8 (_1.ptx:888) sub.f32 %f136, %f21, %f119;
GPGPU-Sim PTX: 15 (potential) branch divergence @  PC=0x1430 (_1.ptx:903) @!%p12 bra $Lt_10_49410;
GPGPU-Sim PTX:    immediate post dominator      @  PC=0x1470 (_1.ptx:915) mov.f32 %f153, 0f3d4ccccd;   // 0.05
GPGPU-Sim PTX: 16 (potential) branch divergence @  PC=0x1450 (_1.ptx:908) bra.uni $Lt_10_49154;
GPGPU-Sim PTX:    immediate post dominator      @  PC=0x1470 (_1.ptx:915) mov.f32 %f153, 0f3d4ccccd;   // 0.05
GPGPU-Sim PTX: 17 (potential) branch divergence @  PC=0x1578 (_1.ptx:949) @!%p13 bra $Lt_10_58114;
GPGPU-Sim PTX:    immediate post dominator      @  PC=0x2080 (_1.ptx:1388) add.f32 %f399, %f126, %f126;
GPGPU-Sim PTX: 18 (potential) branch divergence @  PC=0x15c0 (_1.ptx:961) @%p14 bra $Lt_10_49922;
GPGPU-Sim PTX:    immediate post dominator      @  PC=0x17b0 (_1.ptx:1039) mov.f32 %f221, 0f00000000;   // 0
GPGPU-Sim PTX: 19 (potential) branch divergence @  PC=0x15e0 (_1.ptx:966) @!%p15 bra $Lt_10_50434;
GPGPU-Sim PTX:    immediate post dominator      @  PC=0x1638 (_1.ptx:982) mov.f32 %f190, %f183;
GPGPU-Sim PTX: 20 (potential) branch divergence @  PC=0x15f0 (_1.ptx:968) bra.uni $Lt_10_50178;
GPGPU-Sim PTX:    immediate post dominator      @  PC=0x1638 (_1.ptx:982) mov.f32 %f190, %f183;
GPGPU-Sim PTX: 21 (potential) branch divergence @  PC=0x1640 (_1.ptx:983) bra.uni $Lt_10_49666;
GPGPU-Sim PTX:    immediate post dominator      @  PC=0x17b0 (_1.ptx:1039) mov.f32 %f221, 0f00000000;   // 0
GPGPU-Sim PTX: 22 (potential) branch divergence @  PC=0x1738 (_1.ptx:1016) @%p18 bra $Lt_10_50946;
GPGPU-Sim PTX:    immediate post dominator      @  PC=0x17a8 (_1.ptx:1036) mov.f32 %f190, %f214;
GPGPU-Sim PTX: 23 (potential) branch divergence @  PC=0x1748 (_1.ptx:1018) bra.uni $Lt_10_51202;
GPGPU-Sim PTX:    immediate post dominator      @  PC=0x17a8 (_1.ptx:1036) mov.f32 %f190, %f214;
GPGPU-Sim PTX: 24 (potential) branch divergence @  PC=0x1768 (_1.ptx:1023) @!%p19 bra $Lt_10_51458;
GPGPU-Sim PTX:    immediate post dominator      @  PC=0x17a8 (_1.ptx:1036) mov.f32 %f190, %f214;
GPGPU-Sim PTX: 25 (potential) branch divergence @  PC=0x1778 (_1.ptx:1025) bra.uni $Lt_10_51202;
GPGPU-Sim PTX:    immediate post dominator      @  PC=0x17a8 (_1.ptx:1036) mov.f32 %f190, %f214;
GPGPU-Sim PTX: 26 (potential) branch divergence @  PC=0x17c0 (_1.ptx:1041) @!%p20 bra $Lt_10_58370;
GPGPU-Sim PTX:    immediate post dominator      @  PC=0x1828 (_1.ptx:1057) add.s32 %r50, %r50, 1;
GPGPU-Sim PTX: 27 (potential) branch divergence @  PC=0x1818 (_1.ptx:1052) @!%p21 bra $Lt_10_58370;
GPGPU-Sim PTX:    immediate post dominator      @  PC=0x1828 (_1.ptx:1057) add.s32 %r50, %r50, 1;
GPGPU-Sim PTX: 28 (potential) branch divergence @  PC=0x1848 (_1.ptx:1061) @%p22 bra $Lt_10_58882;
GPGPU-Sim PTX:    immediate post dominator      @  PC=0x1880 (_1.ptx:1071) @!%p23 bra $Lt_10_58114;
GPGPU-Sim PTX: 29 (potential) branch divergence @  PC=0x1860 (_1.ptx:1064) @%p23 bra $L_10_42498;
GPGPU-Sim PTX:    immediate post dominator      @  PC=0x1880 (_1.ptx:1071) @!%p23 bra $Lt_10_58114;
GPGPU-Sim PTX: 30 (potential) branch divergence @  PC=0x1868 (_1.ptx:1065) bra.uni $L_10_43266;
GPGPU-Sim PTX:    immediate post dominator      @  PC=0x1880 (_1.ptx:1071) @!%p23 bra $Lt_10_58114;
GPGPU-Sim PTX: 31 (potential) branch divergence @  PC=0x1880 (_1.ptx:1071) @!%p23 bra $Lt_10_58114;
GPGPU-Sim PTX:    immediate post dominator      @  PC=0x2080 (_1.ptx:1388) add.f32 %f399, %f126, %f126;
GPGPU-Sim PTX: 32 (potential) branch divergence @  PC=0x19c8 (_1.ptx:1115) @!%p24 bra $Lt_10_51714;
GPGPU-Sim PTX:    immediate post dominator      @  PC=0x2040 (_1.ptx:1375) mov.f32 %f394, 0f3f4ccccd;   // 0.8
GPGPU-Sim PTX: 33 (potential) branch divergence @  PC=0x19d8 (_1.ptx:1118) bra.uni $LDWendi___isnanf_192_1;
GPGPU-Sim PTX:    immediate post dominator      @  PC=0x2040 (_1.ptx:1375) mov.f32 %f394, 0f3f4ccccd;   // 0.8
GPGPU-Sim PTX: 34 (potential) branch divergence @  PC=0x19f8 (_1.ptx:1124) @!%p25 bra $Lt_10_7682;
GPGPU-Sim PTX:    immediate post dominator      @  PC=0x2040 (_1.ptx:1375) mov.f32 %f394, 0f3f4ccccd;   // 0.8
GPGPU-Sim PTX: 35 (potential) branch divergence @  PC=0x1a00 (_1.ptx:1125) bra.uni $Lt_10_7938;
GPGPU-Sim PTX:    immediate post dominator      @  PC=0x1a20 (_1.ptx:1133) mov.f32 %f272, 0f7f800000;   // ((1.0F)/(0.0F))
GPGPU-Sim PTX: 36 (potential) branch divergence @  PC=0x1a18 (_1.ptx:1130) bra.uni $LDWendi___isnanf_192_1;
GPGPU-Sim PTX:    immediate post dominator      @  PC=0x2040 (_1.ptx:1375) mov.f32 %f394, 0f3f4ccccd;   // 0.8
GPGPU-Sim PTX: 37 (potential) branch divergence @  PC=0x1a30 (_1.ptx:1135) @!%p26 bra $Lt_10_52226;
GPGPU-Sim PTX:    immediate post dominator      @  PC=0x2040 (_1.ptx:1375) mov.f32 %f394, 0f3f4ccccd;   // 0.8
GPGPU-Sim PTX: 38 (potential) branch divergence @  PC=0x1a40 (_1.ptx:1138) bra.uni $LDWendi___isnanf_192_1;
GPGPU-Sim PTX:    immediate post dominator      @  PC=0x2040 (_1.ptx:1375) mov.f32 %f394, 0f3f4ccccd;   // 0.8
GPGPU-Sim PTX: 39 (potential) branch divergence @  PC=0x1a58 (_1.ptx:1142) @!%p27 bra $Lt_10_52738;
GPGPU-Sim PTX:    immediate post dominator      @  PC=0x2040 (_1.ptx:1375) mov.f32 %f394, 0f3f4ccccd;   // 0.8
GPGPU-Sim PTX: 40 (potential) branch divergence @  PC=0x1ab8 (_1.ptx:1155) bra.uni $LDWendi___isnanf_192_1;
GPGPU-Sim PTX:    immediate post dominator      @  PC=0x2040 (_1.ptx:1375) mov.f32 %f394, 0f3f4ccccd;   // 0.8
GPGPU-Sim PTX: 41 (potential) branch divergence @  PC=0x1ad0 (_1.ptx:1159) @!%p29 bra $Lt_10_53250;
GPGPU-Sim PTX:    immediate post dominator      @  PC=0x2040 (_1.ptx:1375) mov.f32 %f394, 0f3f4ccccd;   // 0.8
GPGPU-Sim PTX: 42 (potential) branch divergence @  PC=0x1b20 (_1.ptx:1170) @!%p30 bra $Lt_10_53762;
GPGPU-Sim PTX:    immediate post dominator      @  PC=0x1b40 (_1.ptx:1177) mov.f32 %f268, %f284;
GPGPU-Sim PTX: 43 (potential) branch divergence @  PC=0x1b48 (_1.ptx:1178) bra.uni $LDWendi___isnanf_192_1;
GPGPU-Sim PTX:    immediate post dominator      @  PC=0x2040 (_1.ptx:1375) mov.f32 %f394, 0f3f4ccccd;   // 0.8
GPGPU-Sim PTX: 44 (potential) branch divergence @  PC=0x1b60 (_1.ptx:1183) @!%p31 bra $Lt_10_59394;
GPGPU-Sim PTX:    immediate post dominator      @  PC=0x2040 (_1.ptx:1375) mov.f32 %f394, 0f3f4ccccd;   // 0.8
GPGPU-Sim PTX: 45 (potential) branch divergence @  PC=0x1b88 (_1.ptx:1188) @!%p32 bra $Lt_10_59394;
GPGPU-Sim PTX:    immediate post dominator      @  PC=0x2040 (_1.ptx:1375) mov.f32 %f394, 0f3f4ccccd;   // 0.8
GPGPU-Sim PTX: 46 (potential) branch divergence @  PC=0x1ba0 (_1.ptx:1192) bra.uni $LDWendi___isnanf_192_1;
GPGPU-Sim PTX:    immediate post dominator      @  PC=0x2040 (_1.ptx:1375) mov.f32 %f394, 0f3f4ccccd;   // 0.8
GPGPU-Sim PTX: 47 (potential) branch divergence @  PC=0x1bd8 (_1.ptx:1202) @%p33 bra $Lt_10_54530;
GPGPU-Sim PTX:    immediate post dominator      @  PC=0x1c20 (_1.ptx:1216) sub.s32 %r64, %r64, 127;
GPGPU-Sim PTX: 48 (potential) branch divergence @  PC=0x1c10 (_1.ptx:1211) bra.uni $Lt_10_54274;
GPGPU-Sim PTX:    immediate post dominator      @  PC=0x1c20 (_1.ptx:1216) sub.s32 %r64, %r64, 127;
GPGPU-Sim PTX: 49 (potential) branch divergence @  PC=0x1c58 (_1.ptx:1224) @!%p34 bra $Lt_10_54786;
GPGPU-Sim PTX:    immediate post dominator      @  PC=0x1c78 (_1.ptx:1232) mov.f32 %f302, 0fbf800000;   // -1
GPGPU-Sim PTX: 50 (potential) branch divergence @  PC=0x1eb0 (_1.ptx:1312) @%p35 bra $Lt_10_55298;
GPGPU-Sim PTX:    immediate post dominator      @  PC=0x1ed8 (_1.ptx:1321) mov.f32 %f367, %f365;
GPGPU-Sim PTX: 51 (potential) branch divergence @  PC=0x1f98 (_1.ptx:1346) @!%p38 bra $Lt_10_55810;
GPGPU-Sim PTX:    immediate post dominator      @  PC=0x1fa8 (_1.ptx:1351) mov.f32 %f284, %f386;
GPGPU-Sim PTX: 52 (potential) branch divergence @  PC=0x2018 (_1.ptx:1365) @%p39 bra $Lt_10_56322;
GPGPU-Sim PTX:    immediate post dominator      @  PC=0x2038 (_1.ptx:1372) mov.f32 %f268, %f284;
GPGPU-Sim PTX: 53 (potential) branch divergence @  PC=0x2158 (_1.ptx:1419) @%p40 bra $L_10_42242;
GPGPU-Sim PTX:    immediate post dominator      @  PC=0x2170 (_1.ptx:1424) sub.s32 %r86, %r24, 1;
GPGPU-Sim PTX: 54 (potential) branch divergence @  PC=0x2168 (_1.ptx:1421) @%p41 bra $L_10_41474;
GPGPU-Sim PTX:    immediate post dominator      @  PC=0x2170 (_1.ptx:1424) sub.s32 %r86, %r24, 1;
GPGPU-Sim PTX: 55 (potential) branch divergence @  PC=0x2190 (_1.ptx:1428) @%p42 bra $Lt_10_56834;
GPGPU-Sim PTX:    immediate post dominator      @  PC=0x2288 (_1.ptx:1464) ld.global.u32 %r92, [%rd4+0];
GPGPU-Sim PTX: 56 (potential) branch divergence @  PC=0x2280 (_1.ptx:1461) @%p43 bra $Lt_10_57346;
GPGPU-Sim PTX:    immediate post dominator      @  PC=0x2288 (_1.ptx:1464) ld.global.u32 %r92, [%rd4+0];
GPGPU-Sim PTX: ... end of reconvergence points for _Z6renderPjP4Nodejjff
GPGPU-Sim PTX: ... done pre-decoding instructions for '_Z6renderPjP4Nodejjff'.
GPGPU-Sim PTX: instruction assembly for function '_ZN4dim3C1Ejjj'...   done.
GPGPU-Sim PTX: finding reconvergence points for '_ZN4dim3C1Ejjj'...
GPGPU-Sim PTX: Finding dominators for '_ZN4dim3C1Ejjj'...
GPGPU-Sim PTX: Finding immediate dominators for '_ZN4dim3C1Ejjj'...
GPGPU-Sim PTX: Finding postdominators for '_ZN4dim3C1Ejjj'...
GPGPU-Sim PTX: Finding immediate postdominators for '_ZN4dim3C1Ejjj'...
GPGPU-Sim PTX: pre-decoding instructions for '_ZN4dim3C1Ejjj'...
GPGPU-Sim PTX: reconvergence points for _ZN4dim3C1Ejjj...
GPGPU-Sim PTX: ... end of reconvergence points for _ZN4dim3C1Ejjj
GPGPU-Sim PTX: ... done pre-decoding instructions for '_ZN4dim3C1Ejjj'.
GPGPU-Sim PTX: finished parsing EMBEDDED .ptx file _1.ptx
Adding _cuobjdump_1.ptx with cubin handle 1
GPGPU-Sim PTX: extracting embedded .ptx to temporary file "_ptx_mu859k"
Running: cat _ptx_mu859k | sed 's/.version 1.5/.version 1.4/' | sed 's/, texmode_independent//' | sed 's/\(\.extern \.const\[1\] .b8 \w\+\)\[\]/\1\[1\]/' | sed 's/const\[.\]/const\[0\]/g' > _ptx2_9VreM5
GPGPU-Sim PTX: generating ptxinfo using "$CUDA_INSTALL_PATH/bin/ptxas --gpu-name=sm_20 -v _ptx2_9VreM5 --output-file  /dev/null 2> _ptx_mu859kinfo"
GPGPU-Sim PTX: Kernel '_Z6renderPjP4Nodejjff' : regs=45, lmem=4, smem=0, cmem=180
GPGPU-Sim PTX: removing ptxinfo using "rm -f _ptx_mu859k _ptx2_9VreM5 _ptx_mu859kinfo"
GPGPU-Sim PTX: loading globals with explicit initializers... 
GPGPU-Sim PTX: finished loading globals (0 bytes total).
GPGPU-Sim PTX: loading constants with explicit initializers...  done.
GPGPU-Sim PTX: __cudaRegisterVar: hostVar = 0x62fda0; deviceAddress = MView; deviceName = MView
GPGPU-Sim PTX: __cudaRegisterVar: Registering const memory space of 48 bytes
GPGPU-Sim PTX registering constant MView (48 bytes) to name mapping
GPGPU-Sim PTX: __cudaRegisterVar: hostVar = 0x62fde0; deviceAddress = cnode; deviceName = cnode
GPGPU-Sim PTX: __cudaRegisterVar: Registering const memory space of 160 bytes
GPGPU-Sim PTX registering constant cnode (160 bytes) to name mapping
GPGPU-Sim PTX: cudaMemcpyToSymbol: symbol = 0x62fde0
GPGPU-Sim PTX: starting gpgpu_ptx_sim_memcpy_symbol with hostVar 0x0x62fde0
GPGPU-Sim PTX: gpgpu_ptx_sim_memcpy_symbol: Found PTX symbol w/ hostVar=0x62fde0
GPGPU-Sim PTX: gpgpu_ptx_sim_memcpy_symbol: copying const memory 160 bytes  to  symbol cnode+0 @0x100 ...
GPGPU-Sim PTX: cudaMemcpyToSymbol: symbol = 0x62fda0
GPGPU-Sim PTX: starting gpgpu_ptx_sim_memcpy_symbol with hostVar 0x0x62fda0
GPGPU-Sim PTX: gpgpu_ptx_sim_memcpy_symbol: Found PTX symbol w/ hostVar=0x62fda0
GPGPU-Sim PTX: gpgpu_ptx_sim_memcpy_symbol: copying const memory 48 bytes  to  symbol MView+0 @0x200 ...

GPGPU-Sim PTX: cudaLaunch for 0x0x40ce13 (mode=performance simulation) on stream 0
GPGPU-Sim PTX: pushing kernel '_Z6renderPjP4Nodejjff' to stream 0, gridDim= (16,32,1) blockDim = (16,8,1) 
kernel '_Z6renderPjP4Nodejjff' transfer to GPU hardware scheduler
GPGPU-Sim uArch: Shader 1 bind to kernel 1 '_Z6renderPjP4Nodejjff'
GPGPU-Sim uArch: CTA/core = 5, limited by: regs
GPGPU-Sim uArch: core:  1, cta: 0 initialized @(1,0)
GPGPU-Sim uArch: Shader 2 bind to kernel 1 '_Z6renderPjP4Nodejjff'
GPGPU-Sim uArch: core:  2, cta: 0 initialized @(1,0)
GPGPU-Sim uArch: Shader 3 bind to kernel 1 '_Z6renderPjP4Nodejjff'
GPGPU-Sim uArch: core:  3, cta: 0 initialized @(1,0)
GPGPU-Sim uArch: Shader 4 bind to kernel 1 '_Z6renderPjP4Nodejjff'
GPGPU-Sim uArch: core:  4, cta: 0 initialized @(1,0)
GPGPU-Sim uArch: Shader 5 bind to kernel 1 '_Z6renderPjP4Nodejjff'
GPGPU-Sim uArch: core:  5, cta: 0 initialized @(1,0)
GPGPU-Sim uArch: Shader 6 bind to kernel 1 '_Z6renderPjP4Nodejjff'
GPGPU-Sim uArch: core:  6, cta: 0 initialized @(1,0)
GPGPU-Sim uArch: Shader 7 bind to kernel 1 '_Z6renderPjP4Nodejjff'
GPGPU-Sim uArch: core:  7, cta: 0 initialized @(1,0)
GPGPU-Sim uArch: Shader 8 bind to kernel 1 '_Z6renderPjP4Nodejjff'
GPGPU-Sim uArch: core:  8, cta: 0 initialized @(1,0)
GPGPU-Sim uArch: Shader 9 bind to kernel 1 '_Z6renderPjP4Nodejjff'
GPGPU-Sim uArch: core:  9, cta: 0 initialized @(1,0)
GPGPU-Sim uArch: Shader 10 bind to kernel 1 '_Z6renderPjP4Nodejjff'
GPGPU-Sim uArch: core: 10, cta: 0 initialized @(1,0)
GPGPU-Sim uArch: Shader 11 bind to kernel 1 '_Z6renderPjP4Nodejjff'
GPGPU-Sim uArch: core: 11, cta: 0 initialized @(1,0)
GPGPU-Sim uArch: Shader 12 bind to kernel 1 '_Z6renderPjP4Nodejjff'
GPGPU-Sim uArch: core: 12, cta: 0 initialized @(1,0)
GPGPU-Sim uArch: Shader 13 bind to kernel 1 '_Z6renderPjP4Nodejjff'
GPGPU-Sim uArch: core: 13, cta: 0 initialized @(1,0)
GPGPU-Sim uArch: Shader 14 bind to kernel 1 '_Z6renderPjP4Nodejjff'
GPGPU-Sim uArch: core: 14, cta: 0 initialized @(1,0)
GPGPU-Sim uArch: Shader 0 bind to kernel 1 '_Z6renderPjP4Nodejjff'
GPGPU-Sim uArch: core:  0, cta: 0 initialized @(1,0)
GPGPU-Sim uArch: core:  1, cta: 1 initialized @(2,0)
GPGPU-Sim uArch: core:  2, cta: 1 initialized @(2,0)
GPGPU-Sim uArch: core:  3, cta: 1 initialized @(2,0)
GPGPU-Sim uArch: core:  4, cta: 1 initialized @(2,0)
GPGPU-Sim uArch: core:  5, cta: 1 initialized @(2,0)
GPGPU-Sim uArch: core:  6, cta: 1 initialized @(2,0)
GPGPU-Sim uArch: core:  7, cta: 1 initialized @(2,0)
GPGPU-Sim uArch: core:  8, cta: 1 initialized @(2,0)
GPGPU-Sim uArch: core:  9, cta: 1 initialized @(2,0)
GPGPU-Sim uArch: core: 10, cta: 1 initialized @(2,0)
GPGPU-Sim uArch: core: 11, cta: 1 initialized @(2,0)
GPGPU-Sim uArch: core: 12, cta: 1 initialized @(2,0)
GPGPU-Sim uArch: core: 13, cta: 1 initialized @(2,0)
GPGPU-Sim uArch: core: 14, cta: 1 initialized @(2,0)
GPGPU-Sim uArch: core:  0, cta: 1 initialized @(2,0)
GPGPU-Sim uArch: core:  1, cta: 2 initialized @(3,0)
GPGPU-Sim uArch: core:  2, cta: 2 initialized @(3,0)
GPGPU-Sim uArch: core:  3, cta: 2 initialized @(3,0)
GPGPU-Sim uArch: core:  4, cta: 2 initialized @(3,0)
GPGPU-Sim uArch: core:  5, cta: 2 initialized @(3,0)
GPGPU-Sim uArch: core:  6, cta: 2 initialized @(3,0)
GPGPU-Sim uArch: core:  7, cta: 2 initialized @(3,0)
GPGPU-Sim uArch: core:  8, cta: 2 initialized @(3,0)
GPGPU-Sim uArch: core:  9, cta: 2 initialized @(3,0)
GPGPU-Sim uArch: core: 10, cta: 2 initialized @(3,0)
GPGPU-Sim uArch: core: 11, cta: 2 initialized @(3,0)
GPGPU-Sim uArch: core: 12, cta: 2 initialized @(3,0)
GPGPU-Sim uArch: core: 13, cta: 2 initialized @(3,0)
GPGPU-Sim uArch: core: 14, cta: 2 initialized @(3,0)
GPGPU-Sim uArch: core:  0, cta: 2 initialized @(3,0)
GPGPU-Sim uArch: core:  1, cta: 3 initialized @(4,0)
GPGPU-Sim uArch: core:  2, cta: 3 initialized @(4,0)
GPGPU-Sim uArch: core:  3, cta: 3 initialized @(4,0)
GPGPU-Sim uArch: core:  4, cta: 3 initialized @(4,0)
GPGPU-Sim uArch: core:  5, cta: 3 initialized @(4,0)
GPGPU-Sim uArch: core:  6, cta: 3 initialized @(4,0)
GPGPU-Sim uArch: core:  7, cta: 3 initialized @(4,0)
GPGPU-Sim uArch: core:  8, cta: 3 initialized @(4,0)
GPGPU-Sim uArch: core:  9, cta: 3 initialized @(4,0)
GPGPU-Sim uArch: core: 10, cta: 3 initialized @(4,0)
GPGPU-Sim uArch: core: 11, cta: 3 initialized @(4,0)
GPGPU-Sim uArch: core: 12, cta: 3 initialized @(4,0)
GPGPU-Sim uArch: core: 13, cta: 3 initialized @(4,0)
GPGPU-Sim uArch: core: 14, cta: 3 initialized @(4,0)
GPGPU-Sim uArch: core:  0, cta: 3 initialized @(4,0)
GPGPU-Sim uArch: core:  1, cta: 4 initialized @(5,0)
GPGPU-Sim uArch: core:  2, cta: 4 initialized @(5,0)
GPGPU-Sim uArch: core:  3, cta: 4 initialized @(5,0)
GPGPU-Sim uArch: core:  4, cta: 4 initialized @(5,0)
GPGPU-Sim uArch: core:  5, cta: 4 initialized @(5,0)
GPGPU-Sim uArch: core:  6, cta: 4 initialized @(5,0)
GPGPU-Sim uArch: core:  7, cta: 4 initialized @(5,0)
GPGPU-Sim uArch: core:  8, cta: 4 initialized @(5,0)
GPGPU-Sim uArch: core:  9, cta: 4 initialized @(5,0)
GPGPU-Sim uArch: core: 10, cta: 4 initialized @(5,0)
GPGPU-Sim uArch: core: 11, cta: 4 initialized @(5,0)
GPGPU-Sim uArch: core: 12, cta: 4 initialized @(5,0)
GPGPU-Sim uArch: core: 13, cta: 4 initialized @(5,0)
GPGPU-Sim uArch: core: 14, cta: 4 initialized @(5,0)
GPGPU-Sim uArch: core:  0, cta: 4 initialized @(5,0)
GPGPU-Sim uArch: cycles simulated: 500  inst.: 35872 (ipc=71.7) sim_rate=17936 (inst/sec) elapsed = 0:0:00:02 / Sun Feb 28 21:33:52 2016
GPGPU-Sim PTX: 100000 instructions simulated : ctaid=(14,0,0) tid=(15,1,0)
GPGPU-Sim uArch: cycles simulated: 3000  inst.: 135456 (ipc=45.2) sim_rate=45152 (inst/sec) elapsed = 0:0:00:03 / Sun Feb 28 21:33:53 2016
GPGPU-Sim PTX: 200000 instructions simulated : ctaid=(8,0,0) tid=(15,1,0)
GPGPU-Sim PTX: 300000 instructions simulated : ctaid=(14,0,0) tid=(15,5,0)
GPGPU-Sim uArch: cycles simulated: 5500  inst.: 322816 (ipc=58.7) sim_rate=80704 (inst/sec) elapsed = 0:0:00:04 / Sun Feb 28 21:33:54 2016
GPGPU-Sim PTX: 400000 instructions simulated : ctaid=(2,0,0) tid=(15,3,0)
GPGPU-Sim PTX: 500000 instructions simulated : ctaid=(5,1,0) tid=(15,5,0)
GPGPU-Sim PTX: 600000 instructions simulated : ctaid=(0,1,0) tid=(15,7,0)
GPGPU-Sim uArch: cycles simulated: 6500  inst.: 629600 (ipc=96.9) sim_rate=125920 (inst/sec) elapsed = 0:0:00:05 / Sun Feb 28 21:33:55 2016
GPGPU-Sim PTX: 700000 instructions simulated : ctaid=(10,3,0) tid=(15,1,0)
GPGPU-Sim PTX: 800000 instructions simulated : ctaid=(9,0,0) tid=(15,5,0)
GPGPU-Sim PTX: 900000 instructions simulated : ctaid=(1,0,0) tid=(15,1,0)
GPGPU-Sim PTX: 1000000 instructions simulated : ctaid=(8,4,0) tid=(15,3,0)
GPGPU-Sim PTX: 1100000 instructions simulated : ctaid=(15,0,0) tid=(15,3,0)
GPGPU-Sim uArch: cycles simulated: 8000  inst.: 1162240 (ipc=145.3) sim_rate=193706 (inst/sec) elapsed = 0:0:00:06 / Sun Feb 28 21:33:56 2016
GPGPU-Sim PTX: 1200000 instructions simulated : ctaid=(0,3,0) tid=(15,7,0)
GPGPU-Sim PTX: 1300000 instructions simulated : ctaid=(8,0,0) tid=(15,1,0)
GPGPU-Sim PTX: 1400000 instructions simulated : ctaid=(1,0,0) tid=(15,3,0)
GPGPU-Sim PTX: 1500000 instructions simulated : ctaid=(3,1,0) tid=(15,5,0)
GPGPU-Sim PTX: 1600000 instructions simulated : ctaid=(1,1,0) tid=(15,1,0)
GPGPU-Sim PTX: 1700000 instructions simulated : ctaid=(5,3,0) tid=(15,7,0)
GPGPU-Sim PTX: 1800000 instructions simulated : ctaid=(6,2,0) tid=(15,1,0)
GPGPU-Sim PTX: 1900000 instructions simulated : ctaid=(11,1,0) tid=(15,7,0)
GPGPU-Sim uArch: cycles simulated: 9000  inst.: 1882304 (ipc=209.1) sim_rate=268900 (inst/sec) elapsed = 0:0:00:07 / Sun Feb 28 21:33:57 2016
GPGPU-Sim PTX: 2000000 instructions simulated : ctaid=(4,1,0) tid=(15,1,0)
GPGPU-Sim PTX: 2100000 instructions simulated : ctaid=(9,2,0) tid=(15,5,0)
GPGPU-Sim PTX: 2200000 instructions simulated : ctaid=(2,2,0) tid=(15,1,0)
GPGPU-Sim PTX: 2300000 instructions simulated : ctaid=(9,2,0) tid=(15,7,0)
GPGPU-Sim PTX: 2400000 instructions simulated : ctaid=(4,1,0) tid=(15,7,0)
GPGPU-Sim PTX: 2500000 instructions simulated : ctaid=(11,2,0) tid=(15,1,0)
GPGPU-Sim PTX: 2600000 instructions simulated : ctaid=(10,1,0) tid=(15,3,0)
GPGPU-Sim PTX: 2700000 instructions simulated : ctaid=(14,0,0) tid=(15,1,0)
GPGPU-Sim uArch: cycles simulated: 10000  inst.: 2656128 (ipc=265.6) sim_rate=332016 (inst/sec) elapsed = 0:0:00:08 / Sun Feb 28 21:33:58 2016
GPGPU-Sim PTX: 2800000 instructions simulated : ctaid=(4,3,0) tid=(15,3,0)
GPGPU-Sim PTX: 2900000 instructions simulated : ctaid=(4,0,0) tid=(15,7,0)
GPGPU-Sim PTX: 3000000 instructions simulated : ctaid=(8,4,0) tid=(15,5,0)
GPGPU-Sim uArch: cycles simulated: 10500  inst.: 3004832 (ipc=286.2) sim_rate=333870 (inst/sec) elapsed = 0:0:00:09 / Sun Feb 28 21:33:59 2016
GPGPU-Sim PTX: 3100000 instructions simulated : ctaid=(8,3,0) tid=(15,1,0)
GPGPU-Sim PTX: 3200000 instructions simulated : ctaid=(7,4,0) tid=(15,7,0)
GPGPU-Sim PTX: 3300000 instructions simulated : ctaid=(8,0,0) tid=(15,7,0)
GPGPU-Sim PTX: 3400000 instructions simulated : ctaid=(14,1,0) tid=(15,1,0)
GPGPU-Sim PTX: 3500000 instructions simulated : ctaid=(7,4,0) tid=(15,7,0)
GPGPU-Sim PTX: 3600000 instructions simulated : ctaid=(0,2,0) tid=(15,1,0)
GPGPU-Sim uArch: cycles simulated: 11500  inst.: 3518336 (ipc=305.9) sim_rate=351833 (inst/sec) elapsed = 0:0:00:10 / Sun Feb 28 21:34:00 2016
GPGPU-Sim PTX: 3700000 instructions simulated : ctaid=(4,4,0) tid=(15,7,0)
GPGPU-Sim PTX: 3800000 instructions simulated : ctaid=(0,4,0) tid=(15,3,0)
GPGPU-Sim PTX: 3900000 instructions simulated : ctaid=(6,4,0) tid=(15,1,0)
GPGPU-Sim PTX: 4000000 instructions simulated : ctaid=(7,1,0) tid=(15,1,0)
GPGPU-Sim PTX: 4100000 instructions simulated : ctaid=(8,4,0) tid=(15,1,0)
GPGPU-Sim uArch: cycles simulated: 12500  inst.: 4008704 (ipc=320.7) sim_rate=364427 (inst/sec) elapsed = 0:0:00:11 / Sun Feb 28 21:34:01 2016
GPGPU-Sim PTX: 4200000 instructions simulated : ctaid=(7,2,0) tid=(15,7,0)
GPGPU-Sim PTX: 4300000 instructions simulated : ctaid=(4,3,0) tid=(15,3,0)
GPGPU-Sim PTX: 4400000 instructions simulated : ctaid=(3,2,0) tid=(15,1,0)
GPGPU-Sim PTX: 4500000 instructions simulated : ctaid=(15,2,0) tid=(15,7,0)
GPGPU-Sim PTX: 4600000 instructions simulated : ctaid=(1,2,0) tid=(4,1,0)
GPGPU-Sim PTX: 4700000 instructions simulated : ctaid=(10,2,0) tid=(7,7,0)
GPGPU-Sim PTX: 4800000 instructions simulated : ctaid=(4,1,0) tid=(15,4,0)
GPGPU-Sim PTX: 4900000 instructions simulated : ctaid=(1,0,0) tid=(15,4,0)
GPGPU-Sim PTX: 5000000 instructions simulated : ctaid=(2,0,0) tid=(15,4,0)
GPGPU-Sim uArch: cycles simulated: 14000  inst.: 4868464 (ipc=347.7) sim_rate=405705 (inst/sec) elapsed = 0:0:00:12 / Sun Feb 28 21:34:02 2016
GPGPU-Sim PTX: 5100000 instructions simulated : ctaid=(9,1,0) tid=(15,4,0)
GPGPU-Sim PTX: 5200000 instructions simulated : ctaid=(12,3,0) tid=(15,2,0)
GPGPU-Sim PTX: 5300000 instructions simulated : ctaid=(9,2,0) tid=(15,2,0)
GPGPU-Sim PTX: 5400000 instructions simulated : ctaid=(14,2,0) tid=(15,4,0)
GPGPU-Sim uArch: cycles simulated: 14500  inst.: 5266759 (ipc=363.2) sim_rate=405135 (inst/sec) elapsed = 0:0:00:13 / Sun Feb 28 21:34:03 2016
GPGPU-Sim PTX: 5500000 instructions simulated : ctaid=(7,1,0) tid=(12,6,0)
GPGPU-Sim PTX: 5600000 instructions simulated : ctaid=(6,2,0) tid=(10,3,0)
GPGPU-Sim PTX: 5700000 instructions simulated : ctaid=(7,4,0) tid=(9,3,0)
GPGPU-Sim PTX: 5800000 instructions simulated : ctaid=(8,3,0) tid=(2,4,0)
GPGPU-Sim PTX: 5900000 instructions simulated : ctaid=(5,4,0) tid=(9,0,0)
GPGPU-Sim PTX: 6000000 instructions simulated : ctaid=(3,2,0) tid=(15,0,0)
GPGPU-Sim PTX: 6100000 instructions simulated : ctaid=(2,3,0) tid=(15,0,0)
GPGPU-Sim uArch: cycles simulated: 15500  inst.: 5934768 (ipc=382.9) sim_rate=423912 (inst/sec) elapsed = 0:0:00:14 / Sun Feb 28 21:34:04 2016
GPGPU-Sim PTX: 6200000 instructions simulated : ctaid=(8,4,0) tid=(15,2,0)
GPGPU-Sim PTX: 6300000 instructions simulated : ctaid=(13,2,0) tid=(11,7,0)
GPGPU-Sim PTX: 6400000 instructions simulated : ctaid=(9,0,0) tid=(11,3,0)
GPGPU-Sim PTX: 6500000 instructions simulated : ctaid=(12,3,0) tid=(13,7,0)
GPGPU-Sim uArch: cycles simulated: 17000  inst.: 6313938 (ipc=371.4) sim_rate=420929 (inst/sec) elapsed = 0:0:00:15 / Sun Feb 28 21:34:05 2016
GPGPU-Sim PTX: 6600000 instructions simulated : ctaid=(5,4,0) tid=(11,5,0)
GPGPU-Sim PTX: 6700000 instructions simulated : ctaid=(7,0,0) tid=(11,1,0)
GPGPU-Sim PTX: 6800000 instructions simulated : ctaid=(10,2,0) tid=(11,3,0)
GPGPU-Sim PTX: 6900000 instructions simulated : ctaid=(4,0,0) tid=(11,3,0)
GPGPU-Sim uArch: cycles simulated: 18000  inst.: 6781892 (ipc=376.8) sim_rate=423868 (inst/sec) elapsed = 0:0:00:16 / Sun Feb 28 21:34:06 2016
GPGPU-Sim PTX: 7000000 instructions simulated : ctaid=(13,2,0) tid=(11,7,0)
GPGPU-Sim PTX: 7100000 instructions simulated : ctaid=(14,1,0) tid=(11,3,0)
GPGPU-Sim PTX: 7200000 instructions simulated : ctaid=(6,2,0) tid=(11,3,0)
GPGPU-Sim PTX: 7300000 instructions simulated : ctaid=(4,2,0) tid=(11,5,0)
GPGPU-Sim PTX: 7400000 instructions simulated : ctaid=(1,1,0) tid=(11,3,0)
GPGPU-Sim PTX: 7500000 instructions simulated : ctaid=(11,3,0) tid=(11,7,0)
GPGPU-Sim uArch: cycles simulated: 19500  inst.: 7376932 (ipc=378.3) sim_rate=433937 (inst/sec) elapsed = 0:0:00:17 / Sun Feb 28 21:34:07 2016
GPGPU-Sim PTX: 7600000 instructions simulated : ctaid=(12,2,0) tid=(11,1,0)
GPGPU-Sim PTX: 7700000 instructions simulated : ctaid=(12,0,0) tid=(11,7,0)
GPGPU-Sim PTX: 7800000 instructions simulated : ctaid=(9,3,0) tid=(11,5,0)
GPGPU-Sim PTX: 7900000 instructions simulated : ctaid=(8,1,0) tid=(11,5,0)
GPGPU-Sim uArch: cycles simulated: 20500  inst.: 7770500 (ipc=379.0) sim_rate=431694 (inst/sec) elapsed = 0:0:00:18 / Sun Feb 28 21:34:08 2016
GPGPU-Sim PTX: 8000000 instructions simulated : ctaid=(3,2,0) tid=(11,5,0)
GPGPU-Sim PTX: 8100000 instructions simulated : ctaid=(5,4,0) tid=(11,7,0)
GPGPU-Sim PTX: 8200000 instructions simulated : ctaid=(15,0,0) tid=(11,3,0)
GPGPU-Sim PTX: 8300000 instructions simulated : ctaid=(11,0,0) tid=(11,1,0)
GPGPU-Sim PTX: 8400000 instructions simulated : ctaid=(10,3,0) tid=(11,7,0)
GPGPU-Sim PTX: 8500000 instructions simulated : ctaid=(13,2,0) tid=(11,5,0)
GPGPU-Sim PTX: 8600000 instructions simulated : ctaid=(8,4,0) tid=(11,1,0)
GPGPU-Sim PTX: 8700000 instructions simulated : ctaid=(5,3,0) tid=(9,4,0)
GPGPU-Sim uArch: cycles simulated: 22000  inst.: 8514543 (ipc=387.0) sim_rate=448133 (inst/sec) elapsed = 0:0:00:19 / Sun Feb 28 21:34:09 2016
GPGPU-Sim PTX: 8800000 instructions simulated : ctaid=(10,1,0) tid=(5,4,0)
GPGPU-Sim PTX: 8900000 instructions simulated : ctaid=(14,1,0) tid=(11,1,0)
GPGPU-Sim PTX: 9000000 instructions simulated : ctaid=(6,1,0) tid=(11,1,0)
GPGPU-Sim PTX: 9100000 instructions simulated : ctaid=(5,2,0) tid=(5,3,0)
GPGPU-Sim PTX: 9200000 instructions simulated : ctaid=(7,1,0) tid=(6,5,0)
GPGPU-Sim PTX: 9300000 instructions simulated : ctaid=(8,1,0) tid=(15,0,0)
GPGPU-Sim PTX: 9400000 instructions simulated : ctaid=(1,1,0) tid=(7,0,0)
GPGPU-Sim PTX: 9500000 instructions simulated : ctaid=(2,1,0) tid=(14,3,0)
GPGPU-Sim uArch: cycles simulated: 23000  inst.: 9316829 (ipc=405.1) sim_rate=465841 (inst/sec) elapsed = 0:0:00:20 / Sun Feb 28 21:34:10 2016
GPGPU-Sim PTX: 9600000 instructions simulated : ctaid=(10,1,0) tid=(11,7,0)
GPGPU-Sim PTX: 9700000 instructions simulated : ctaid=(6,1,0) tid=(3,7,0)
GPGPU-Sim PTX: 9800000 instructions simulated : ctaid=(8,3,0) tid=(6,2,0)
GPGPU-Sim PTX: 9900000 instructions simulated : ctaid=(12,3,0) tid=(7,6,0)
GPGPU-Sim uArch: cycles simulated: 23500  inst.: 9664110 (ipc=411.2) sim_rate=460195 (inst/sec) elapsed = 0:0:00:21 / Sun Feb 28 21:34:11 2016
GPGPU-Sim PTX: 10000000 instructions simulated : ctaid=(6,1,0) tid=(10,3,0)
GPGPU-Sim PTX: 10100000 instructions simulated : ctaid=(5,3,0) tid=(2,2,0)
GPGPU-Sim PTX: 10200000 instructions simulated : ctaid=(4,4,0) tid=(13,7,0)
GPGPU-Sim PTX: 10300000 instructions simulated : ctaid=(14,0,0) tid=(10,5,0)
GPGPU-Sim uArch: Shader 8 finished CTA #3 (25105,0), 4 CTAs running
GPGPU-Sim uArch: core:  8, cta: 3 initialized @(25106,0)
GPGPU-Sim uArch: Shader 6 finished CTA #3 (25107,0), 4 CTAs running
GPGPU-Sim uArch: core:  6, cta: 3 initialized @(25108,0)
GPGPU-Sim uArch: Shader 8 finished CTA #2 (25125,0), 4 CTAs running
GPGPU-Sim uArch: core:  8, cta: 2 initialized @(25126,0)
GPGPU-Sim uArch: Shader 6 finished CTA #2 (25149,0), 4 CTAs running
GPGPU-Sim uArch: core:  6, cta: 2 initialized @(25150,0)
GPGPU-Sim uArch: Shader 0 finished CTA #0 (25161,0), 4 CTAs running
GPGPU-Sim uArch: core:  0, cta: 0 initialized @(25162,0)
GPGPU-Sim uArch: Shader 2 finished CTA #0 (25177,0), 4 CTAs running
GPGPU-Sim uArch: core:  2, cta: 0 initialized @(25178,0)
GPGPU-Sim uArch: Shader 8 finished CTA #4 (25179,0), 4 CTAs running
GPGPU-Sim uArch: core:  8, cta: 4 initialized @(25180,0)
GPGPU-Sim uArch: Shader 6 finished CTA #4 (25193,0), 4 CTAs running
GPGPU-Sim uArch: core:  6, cta: 4 initialized @(25194,0)
GPGPU-Sim PTX: 10400000 instructions simulated : ctaid=(10,1,0) tid=(15,4,0)
GPGPU-Sim uArch: Shader 1 finished CTA #1 (25197,0), 4 CTAs running
GPGPU-Sim uArch: core:  1, cta: 1 initialized @(25198,0)
GPGPU-Sim uArch: Shader 1 finished CTA #0 (25209,0), 4 CTAs running
GPGPU-Sim uArch: core:  1, cta: 0 initialized @(25210,0)
GPGPU-Sim uArch: Shader 9 finished CTA #3 (25213,0), 4 CTAs running
GPGPU-Sim uArch: core:  9, cta: 3 initialized @(25214,0)
GPGPU-Sim uArch: Shader 14 finished CTA #0 (25229,0), 4 CTAs running
GPGPU-Sim uArch: core: 14, cta: 0 initialized @(25230,0)
GPGPU-Sim uArch: Shader 1 finished CTA #2 (25241,0), 4 CTAs running
GPGPU-Sim uArch: Shader 2 finished CTA #1 (25241,0), 4 CTAs running
GPGPU-Sim uArch: core:  1, cta: 2 initialized @(25242,0)
GPGPU-Sim uArch: core:  2, cta: 1 initialized @(25242,0)
GPGPU-Sim uArch: Shader 2 finished CTA #3 (25251,0), 4 CTAs running
GPGPU-Sim uArch: core:  2, cta: 3 initialized @(25252,0)
GPGPU-Sim uArch: Shader 0 finished CTA #1 (25253,0), 4 CTAs running
GPGPU-Sim uArch: core:  0, cta: 1 initialized @(25254,0)
GPGPU-Sim uArch: Shader 0 finished CTA #3 (25261,0), 4 CTAs running
GPGPU-Sim uArch: Shader 9 finished CTA #4 (25261,0), 4 CTAs running
GPGPU-Sim uArch: core:  9, cta: 4 initialized @(25262,0)
GPGPU-Sim uArch: core:  0, cta: 3 initialized @(25262,0)
GPGPU-Sim uArch: Shader 1 finished CTA #3 (25263,0), 4 CTAs running
GPGPU-Sim uArch: Shader 2 finished CTA #2 (25263,0), 4 CTAs running
GPGPU-Sim uArch: core:  1, cta: 3 initialized @(25264,0)
GPGPU-Sim uArch: core:  2, cta: 2 initialized @(25264,0)
GPGPU-Sim uArch: Shader 4 finished CTA #1 (25269,0), 4 CTAs running
GPGPU-Sim uArch: core:  4, cta: 1 initialized @(25270,0)
GPGPU-Sim uArch: Shader 0 finished CTA #2 (25271,0), 4 CTAs running
GPGPU-Sim uArch: core:  0, cta: 2 initialized @(25272,0)
GPGPU-Sim uArch: Shader 4 finished CTA #2 (25310,0), 4 CTAs running
GPGPU-Sim uArch: core:  4, cta: 2 initialized @(25311,0)
GPGPU-Sim uArch: Shader 1 finished CTA #4 (25319,0), 4 CTAs running
GPGPU-Sim uArch: core:  1, cta: 4 initialized @(25320,0)
GPGPU-Sim uArch: Shader 4 finished CTA #3 (25345,0), 4 CTAs running
GPGPU-Sim uArch: core:  4, cta: 3 initialized @(25346,0)
GPGPU-Sim uArch: Shader 3 finished CTA #1 (25398,0), 4 CTAs running
GPGPU-Sim uArch: core:  3, cta: 1 initialized @(25399,0)
GPGPU-Sim uArch: Shader 3 finished CTA #0 (25406,0), 4 CTAs running
GPGPU-Sim uArch: core:  3, cta: 0 initialized @(25407,0)
GPGPU-Sim uArch: Shader 5 finished CTA #2 (25420,0), 4 CTAs running
GPGPU-Sim uArch: core:  5, cta: 2 initialized @(25421,0)
GPGPU-Sim uArch: Shader 2 finished CTA #4 (25428,0), 4 CTAs running
GPGPU-Sim uArch: Shader 5 finished CTA #3 (25428,0), 4 CTAs running
GPGPU-Sim uArch: core:  2, cta: 4 initialized @(25429,0)
GPGPU-Sim uArch: core:  5, cta: 3 initialized @(25429,0)
GPGPU-Sim uArch: Shader 7 finished CTA #3 (25430,0), 4 CTAs running
GPGPU-Sim uArch: core:  7, cta: 3 initialized @(25431,0)
GPGPU-Sim uArch: Shader 0 finished CTA #4 (25438,0), 4 CTAs running
GPGPU-Sim uArch: core:  0, cta: 4 initialized @(25439,0)
GPGPU-Sim uArch: Shader 7 finished CTA #4 (25440,0), 4 CTAs running
GPGPU-Sim uArch: core:  7, cta: 4 initialized @(25441,0)
GPGPU-Sim PTX: 10500000 instructions simulated : ctaid=(9,3,0) tid=(6,6,0)
GPGPU-Sim uArch: Shader 3 finished CTA #4 (25498,0), 4 CTAs running
GPGPU-Sim uArch: core:  3, cta: 4 initialized @(25499,0)
GPGPU-Sim uArch: cycles simulated: 25500  inst.: 10231636 (ipc=401.2) sim_rate=465074 (inst/sec) elapsed = 0:0:00:22 / Sun Feb 28 21:34:12 2016
GPGPU-Sim uArch: Shader 4 finished CTA #4 (25544,0), 4 CTAs running
GPGPU-Sim uArch: core:  4, cta: 4 initialized @(25545,0)
GPGPU-Sim uArch: Shader 3 finished CTA #2 (25565,0), 4 CTAs running
GPGPU-Sim uArch: core:  3, cta: 2 initialized @(25566,0)
GPGPU-Sim uArch: Shader 3 finished CTA #3 (25607,0), 4 CTAs running
GPGPU-Sim uArch: core:  3, cta: 3 initialized @(25608,0)
GPGPU-Sim uArch: Shader 5 finished CTA #4 (25638,0), 4 CTAs running
GPGPU-Sim uArch: core:  5, cta: 4 initialized @(25639,0)
GPGPU-Sim uArch: Shader 10 finished CTA #4 (25650,0), 4 CTAs running
GPGPU-Sim uArch: core: 10, cta: 4 initialized @(25651,0)
GPGPU-Sim PTX: 10600000 instructions simulated : ctaid=(4,6,0) tid=(13,4,0)
GPGPU-Sim uArch: cycles simulated: 26000  inst.: 10381736 (ipc=399.3) sim_rate=451379 (inst/sec) elapsed = 0:0:00:23 / Sun Feb 28 21:34:13 2016
GPGPU-Sim PTX: 10700000 instructions simulated : ctaid=(6,0,0) tid=(9,3,0)
GPGPU-Sim PTX: 10800000 instructions simulated : ctaid=(3,0,0) tid=(14,3,0)
GPGPU-Sim PTX: 10900000 instructions simulated : ctaid=(9,1,0) tid=(7,7,0)
GPGPU-Sim PTX: 11000000 instructions simulated : ctaid=(6,5,0) tid=(7,5,0)
GPGPU-Sim uArch: cycles simulated: 27000  inst.: 10779382 (ipc=399.2) sim_rate=449140 (inst/sec) elapsed = 0:0:00:24 / Sun Feb 28 21:34:14 2016
GPGPU-Sim PTX: 11100000 instructions simulated : ctaid=(1,7,0) tid=(4,3,0)
GPGPU-Sim PTX: 11200000 instructions simulated : ctaid=(2,5,0) tid=(14,3,0)
GPGPU-Sim PTX: 11300000 instructions simulated : ctaid=(5,1,0) tid=(2,7,0)
GPGPU-Sim PTX: 11400000 instructions simulated : ctaid=(8,3,0) tid=(2,0,0)
GPGPU-Sim PTX: 11500000 instructions simulated : ctaid=(11,6,0) tid=(10,7,0)
GPGPU-Sim PTX: 11600000 instructions simulated : ctaid=(4,5,0) tid=(11,1,0)
GPGPU-Sim uArch: cycles simulated: 28000  inst.: 11330912 (ipc=404.7) sim_rate=453236 (inst/sec) elapsed = 0:0:00:25 / Sun Feb 28 21:34:15 2016
GPGPU-Sim PTX: 11700000 instructions simulated : ctaid=(13,4,0) tid=(0,3,0)
GPGPU-Sim PTX: 11800000 instructions simulated : ctaid=(8,3,0) tid=(10,2,0)
GPGPU-Sim PTX: 11900000 instructions simulated : ctaid=(5,6,0) tid=(5,7,0)
GPGPU-Sim PTX: 12000000 instructions simulated : ctaid=(0,5,0) tid=(3,2,0)
GPGPU-Sim PTX: 12100000 instructions simulated : ctaid=(9,1,0) tid=(3,6,0)
GPGPU-Sim PTX: 12200000 instructions simulated : ctaid=(11,4,0) tid=(9,3,0)
GPGPU-Sim uArch: cycles simulated: 29000  inst.: 11949517 (ipc=412.1) sim_rate=459596 (inst/sec) elapsed = 0:0:00:26 / Sun Feb 28 21:34:16 2016
GPGPU-Sim PTX: 12300000 instructions simulated : ctaid=(9,1,0) tid=(5,3,0)
GPGPU-Sim PTX: 12400000 instructions simulated : ctaid=(8,0,0) tid=(7,7,0)
GPGPU-Sim uArch: Shader 14 finished CTA #2 (29347,0), 4 CTAs running
GPGPU-Sim uArch: core: 14, cta: 2 initialized @(29348,0)
GPGPU-Sim PTX: 12500000 instructions simulated : ctaid=(10,5,0) tid=(2,0,0)
GPGPU-Sim uArch: Shader 7 finished CTA #2 (29394,0), 4 CTAs running
GPGPU-Sim uArch: core:  7, cta: 2 initialized @(29395,0)
GPGPU-Sim PTX: 12600000 instructions simulated : ctaid=(13,5,0) tid=(9,2,0)
GPGPU-Sim PTX: 12700000 instructions simulated : ctaid=(11,6,0) tid=(11,0,0)
GPGPU-Sim PTX: 12800000 instructions simulated : ctaid=(1,7,0) tid=(5,4,0)
GPGPU-Sim uArch: cycles simulated: 30000  inst.: 12558288 (ipc=418.6) sim_rate=465121 (inst/sec) elapsed = 0:0:00:27 / Sun Feb 28 21:34:17 2016
GPGPU-Sim PTX: 12900000 instructions simulated : ctaid=(14,4,0) tid=(1,4,0)
GPGPU-Sim PTX: 13000000 instructions simulated : ctaid=(7,4,0) tid=(11,5,0)
GPGPU-Sim PTX: 13100000 instructions simulated : ctaid=(2,5,0) tid=(12,3,0)
GPGPU-Sim uArch: cycles simulated: 30500  inst.: 12833878 (ipc=420.8) sim_rate=458352 (inst/sec) elapsed = 0:0:00:28 / Sun Feb 28 21:34:18 2016
GPGPU-Sim PTX: 13200000 instructions simulated : ctaid=(3,7,0) tid=(14,1,0)
GPGPU-Sim PTX: 13300000 instructions simulated : ctaid=(3,6,0) tid=(12,6,0)
GPGPU-Sim PTX: 13400000 instructions simulated : ctaid=(7,2,0) tid=(12,6,0)
GPGPU-Sim PTX: 13500000 instructions simulated : ctaid=(3,6,0) tid=(12,0,0)
GPGPU-Sim PTX: 13600000 instructions simulated : ctaid=(7,1,0) tid=(0,5,0)
GPGPU-Sim PTX: 13700000 instructions simulated : ctaid=(15,5,0) tid=(10,4,0)
GPGPU-Sim uArch: cycles simulated: 31500  inst.: 13376029 (ipc=424.6) sim_rate=461242 (inst/sec) elapsed = 0:0:00:29 / Sun Feb 28 21:34:19 2016
GPGPU-Sim PTX: 13800000 instructions simulated : ctaid=(1,6,0) tid=(4,3,0)
GPGPU-Sim PTX: 13900000 instructions simulated : ctaid=(1,6,0) tid=(10,2,0)
GPGPU-Sim PTX: 14000000 instructions simulated : ctaid=(5,5,0) tid=(3,4,0)
GPGPU-Sim PTX: 14100000 instructions simulated : ctaid=(2,7,0) tid=(10,1,0)
GPGPU-Sim PTX: 14200000 instructions simulated : ctaid=(0,6,0) tid=(9,0,0)
GPGPU-Sim PTX: 14300000 instructions simulated : ctaid=(11,5,0) tid=(9,3,0)
GPGPU-Sim uArch: cycles simulated: 32500  inst.: 13931300 (ipc=428.7) sim_rate=464376 (inst/sec) elapsed = 0:0:00:30 / Sun Feb 28 21:34:20 2016
GPGPU-Sim PTX: 14400000 instructions simulated : ctaid=(0,7,0) tid=(1,5,0)
GPGPU-Sim PTX: 14500000 instructions simulated : ctaid=(7,5,0) tid=(13,2,0)
GPGPU-Sim PTX: 14600000 instructions simulated : ctaid=(8,6,0) tid=(4,5,0)
GPGPU-Sim PTX: 14700000 instructions simulated : ctaid=(8,0,0) tid=(3,3,0)
GPGPU-Sim PTX: 14800000 instructions simulated : ctaid=(9,0,0) tid=(1,1,0)
GPGPU-Sim PTX: 14900000 instructions simulated : ctaid=(12,5,0) tid=(0,4,0)
GPGPU-Sim uArch: cycles simulated: 33500  inst.: 14534749 (ipc=433.9) sim_rate=468862 (inst/sec) elapsed = 0:0:00:31 / Sun Feb 28 21:34:21 2016
GPGPU-Sim PTX: 15000000 instructions simulated : ctaid=(14,4,0) tid=(5,0,0)
GPGPU-Sim PTX: 15100000 instructions simulated : ctaid=(11,4,0) tid=(7,3,0)
GPGPU-Sim PTX: 15200000 instructions simulated : ctaid=(7,5,0) tid=(10,7,0)
GPGPU-Sim PTX: 15300000 instructions simulated : ctaid=(6,1,0) tid=(4,2,0)
GPGPU-Sim PTX: 15400000 instructions simulated : ctaid=(6,0,0) tid=(12,2,0)
GPGPU-Sim PTX: 15500000 instructions simulated : ctaid=(8,1,0) tid=(15,5,0)
GPGPU-Sim uArch: cycles simulated: 34500  inst.: 15097568 (ipc=437.6) sim_rate=471799 (inst/sec) elapsed = 0:0:00:32 / Sun Feb 28 21:34:22 2016
GPGPU-Sim PTX: 15600000 instructions simulated : ctaid=(3,7,0) tid=(13,5,0)
GPGPU-Sim PTX: 15700000 instructions simulated : ctaid=(7,1,0) tid=(0,2,0)
GPGPU-Sim PTX: 15800000 instructions simulated : ctaid=(1,5,0) tid=(2,3,0)
GPGPU-Sim PTX: 15900000 instructions simulated : ctaid=(3,7,0) tid=(15,6,0)
GPGPU-Sim uArch: cycles simulated: 35500  inst.: 15524793 (ipc=437.3) sim_rate=470448 (inst/sec) elapsed = 0:0:00:33 / Sun Feb 28 21:34:23 2016
GPGPU-Sim PTX: 16000000 instructions simulated : ctaid=(15,4,0) tid=(5,3,0)
GPGPU-Sim uArch: Shader 14 finished CTA #3 (35622,0), 4 CTAs running
GPGPU-Sim uArch: core: 14, cta: 3 initialized @(35623,0)
GPGPU-Sim PTX: 16100000 instructions simulated : ctaid=(9,3,0) tid=(5,0,0)
GPGPU-Sim uArch: Shader 13 finished CTA #2 (35843,0), 4 CTAs running
GPGPU-Sim uArch: core: 13, cta: 2 initialized @(35844,0)
GPGPU-Sim PTX: 16200000 instructions simulated : ctaid=(4,6,0) tid=(6,6,0)
GPGPU-Sim PTX: 16300000 instructions simulated : ctaid=(10,6,0) tid=(3,5,0)
GPGPU-Sim PTX: 16400000 instructions simulated : ctaid=(8,5,0) tid=(2,6,0)
GPGPU-Sim uArch: cycles simulated: 36500  inst.: 15966719 (ipc=437.4) sim_rate=469609 (inst/sec) elapsed = 0:0:00:34 / Sun Feb 28 21:34:24 2016
GPGPU-Sim PTX: 16500000 instructions simulated : ctaid=(12,5,0) tid=(14,2,0)
GPGPU-Sim PTX: 16600000 instructions simulated : ctaid=(13,4,0) tid=(13,2,0)
GPGPU-Sim PTX: 16700000 instructions simulated : ctaid=(3,6,0) tid=(15,4,0)
GPGPU-Sim PTX: 16800000 instructions simulated : ctaid=(2,6,0) tid=(12,0,0)
GPGPU-Sim uArch: cycles simulated: 37500  inst.: 16439444 (ipc=438.4) sim_rate=469698 (inst/sec) elapsed = 0:0:00:35 / Sun Feb 28 21:34:25 2016
GPGPU-Sim PTX: 16900000 instructions simulated : ctaid=(8,5,0) tid=(3,4,0)
GPGPU-Sim PTX: 17000000 instructions simulated : ctaid=(8,3,0) tid=(2,1,0)
GPGPU-Sim PTX: 17100000 instructions simulated : ctaid=(7,3,0) tid=(13,4,0)
GPGPU-Sim PTX: 17200000 instructions simulated : ctaid=(9,0,0) tid=(4,6,0)
GPGPU-Sim PTX: 17300000 instructions simulated : ctaid=(4,7,0) tid=(10,2,0)
GPGPU-Sim PTX: 17400000 instructions simulated : ctaid=(6,2,0) tid=(12,6,0)
GPGPU-Sim uArch: cycles simulated: 38500  inst.: 16973432 (ipc=440.9) sim_rate=471484 (inst/sec) elapsed = 0:0:00:36 / Sun Feb 28 21:34:26 2016
GPGPU-Sim PTX: 17500000 instructions simulated : ctaid=(3,5,0) tid=(9,0,0)
GPGPU-Sim PTX: 17600000 instructions simulated : ctaid=(1,7,0) tid=(4,6,0)
GPGPU-Sim uArch: Shader 5 finished CTA #1 (38866,0), 4 CTAs running
GPGPU-Sim uArch: core:  5, cta: 1 initialized @(38867,0)
GPGPU-Sim PTX: 17700000 instructions simulated : ctaid=(1,6,0) tid=(6,6,0)
GPGPU-Sim PTX: 17800000 instructions simulated : ctaid=(4,7,0) tid=(14,5,0)
GPGPU-Sim PTX: 17900000 instructions simulated : ctaid=(6,5,0) tid=(4,0,0)
GPGPU-Sim uArch: cycles simulated: 39500  inst.: 17478117 (ipc=442.5) sim_rate=472381 (inst/sec) elapsed = 0:0:00:37 / Sun Feb 28 21:34:27 2016
GPGPU-Sim PTX: 18000000 instructions simulated : ctaid=(0,5,0) tid=(5,6,0)
GPGPU-Sim uArch: Shader 9 finished CTA #3 (39705,0), 4 CTAs running
GPGPU-Sim uArch: core:  9, cta: 3 initialized @(39706,0)
GPGPU-Sim uArch: Shader 9 finished CTA #4 (39765,0), 4 CTAs running
GPGPU-Sim uArch: core:  9, cta: 4 initialized @(39766,0)
GPGPU-Sim PTX: 18100000 instructions simulated : ctaid=(6,4,0) tid=(15,1,0)
GPGPU-Sim PTX: 18200000 instructions simulated : ctaid=(0,6,0) tid=(3,7,0)
GPGPU-Sim PTX: 18300000 instructions simulated : ctaid=(5,6,0) tid=(2,1,0)
GPGPU-Sim PTX: 18400000 instructions simulated : ctaid=(1,5,0) tid=(5,3,0)
GPGPU-Sim uArch: Shader 11 finished CTA #4 (40513,0), 4 CTAs running
GPGPU-Sim uArch: core: 11, cta: 4 initialized @(40514,0)
GPGPU-Sim uArch: Shader 5 finished CTA #4 (40515,0), 4 CTAs running
GPGPU-Sim uArch: core:  5, cta: 4 initialized @(40516,0)
GPGPU-Sim uArch: Shader 7 finished CTA #4 (40583,0), 4 CTAs running
GPGPU-Sim uArch: core:  7, cta: 4 initialized @(40584,0)
GPGPU-Sim PTX: 18500000 instructions simulated : ctaid=(9,5,0) tid=(4,4,0)
GPGPU-Sim uArch: Shader 12 finished CTA #3 (40742,0), 4 CTAs running
GPGPU-Sim uArch: core: 12, cta: 3 initialized @(40743,0)
GPGPU-Sim uArch: Shader 8 finished CTA #3 (40820,0), 4 CTAs running
GPGPU-Sim uArch: core:  8, cta: 3 initialized @(40821,0)
GPGPU-Sim uArch: Shader 8 finished CTA #4 (40861,0), 4 CTAs running
GPGPU-Sim uArch: core:  8, cta: 4 initialized @(40862,0)
GPGPU-Sim uArch: Shader 8 finished CTA #2 (40905,0), 4 CTAs running
GPGPU-Sim uArch: core:  8, cta: 2 initialized @(40906,0)
GPGPU-Sim PTX: 18600000 instructions simulated : ctaid=(3,6,0) tid=(14,2,0)
GPGPU-Sim uArch: cycles simulated: 41000  inst.: 18133665 (ipc=442.3) sim_rate=477201 (inst/sec) elapsed = 0:0:00:38 / Sun Feb 28 21:34:28 2016
GPGPU-Sim uArch: Shader 4 finished CTA #2 (41021,0), 4 CTAs running
GPGPU-Sim uArch: core:  4, cta: 2 initialized @(41022,0)
GPGPU-Sim uArch: Shader 10 finished CTA #3 (41099,0), 4 CTAs running
GPGPU-Sim uArch: core: 10, cta: 3 initialized @(41100,0)
GPGPU-Sim uArch: Shader 10 finished CTA #4 (41130,0), 4 CTAs running
GPGPU-Sim uArch: core: 10, cta: 4 initialized @(41131,0)
GPGPU-Sim PTX: 18700000 instructions simulated : ctaid=(7,6,0) tid=(2,2,0)
GPGPU-Sim uArch: Shader 14 finished CTA #1 (41151,0), 4 CTAs running
GPGPU-Sim uArch: core: 14, cta: 1 initialized @(41152,0)
GPGPU-Sim uArch: Shader 4 finished CTA #3 (41152,0), 4 CTAs running
GPGPU-Sim uArch: core:  4, cta: 3 initialized @(41153,0)
GPGPU-Sim uArch: Shader 4 finished CTA #1 (41209,0), 4 CTAs running
GPGPU-Sim uArch: core:  4, cta: 1 initialized @(41210,0)
GPGPU-Sim uArch: Shader 4 finished CTA #0 (41235,0), 4 CTAs running
GPGPU-Sim uArch: core:  4, cta: 0 initialized @(41236,0)
GPGPU-Sim PTX: 18800000 instructions simulated : ctaid=(15,4,0) tid=(0,1,0)
GPGPU-Sim uArch: Shader 6 finished CTA #2 (41454,0), 4 CTAs running
GPGPU-Sim uArch: core:  6, cta: 2 initialized @(41455,0)
GPGPU-Sim uArch: Shader 13 finished CTA #0 (41476,0), 4 CTAs running
GPGPU-Sim uArch: core: 13, cta: 0 initialized @(41477,0)
GPGPU-Sim uArch: Shader 13 finished CTA #1 (41485,0), 4 CTAs running
GPGPU-Sim uArch: core: 13, cta: 1 initialized @(41486,0)
GPGPU-Sim uArch: cycles simulated: 41500  inst.: 18338919 (ipc=441.9) sim_rate=470228 (inst/sec) elapsed = 0:0:00:39 / Sun Feb 28 21:34:29 2016
GPGPU-Sim uArch: Shader 13 finished CTA #3 (41633,0), 4 CTAs running
GPGPU-Sim uArch: core: 13, cta: 3 initialized @(41634,0)
[...]
traffic_breakdown_memtocore[GLOBAL_ACC_R] = 534072 {136:3927,}
traffic_breakdown_memtocore[GLOBAL_ACC_W] = 65536 {8:8192,}
traffic_breakdown_memtocore[INST_ACC_R] = 1808528 {136:13298,}
traffic_breakdown_memtocore[LOCAL_ACC_R] = 1018504 {136:7489,}
traffic_breakdown_memtocore[LOCAL_ACC_W] = 356376 {8:44547,}
maxmrqlatency = 641 
maxdqlatency = 0 
maxmflatency = 1813 
averagemflatency = 233 
max_icnt2mem_latency = 1067 
max_icnt2sh_latency = 139649 
mrq_lat_table:3133 	140 	270 	512 	729 	866 	1428 	1550 	331 	13 	0 	0 	0 	0 	0 	0 	0 	0 	0 	0 	0 	0 	0 	0 	0 	0 	0 	0 	0 	0 	0 	0 	
dq_lat_table:0 	0 	0 	0 	0 	0 	0 	0 	0 	0 	0 	0 	0 	0 	0 	0 	0 	0 	0 	0 	0 	0 	0 	0 	0 	0 	0 	0 	0 	0 	0 	0 	
mf_lat_table:0 	0 	0 	0 	0 	0 	0 	56402 	4605 	2128 	1050 	0 	0 	0 	0 	0 	0 	0 	0 	0 	0 	0 	0 	0 	0 	0 	0 	0 	0 	0 	0 	0 	
icnt2mem_lat_table:0 	0 	0 	21403 	13724 	13646 	30275 	1748 	1328 	545 	2 	0 	0 	0 	0 	0 	0 	0 	0 	0 	0 	0 	0 	0 	
icnt2sh_lat_table:0 	0 	0 	5042 	4239 	1902 	261 	2 	0 	222 	504 	1124 	4295 	2855 	5484 	11298 	24480 	2477 	0 	0 	0 	0 	0 	0 	
mf_lat_pw_table:0 	0 	0 	0 	0 	0 	0 	246 	9 	6 	3 	0 	0 	0 	0 	0 	0 	0 	0 	0 	0 	0 	0 	0 	0 	0 	0 	0 	0 	0 	0 	0 	
maximum concurrent accesses to same row:
dram[0]:        29        44        32        32        22        20        16        18        18        16        10        10        14        12        16        16 
dram[1]:        42        42        32        31        18        22        14        12        12        10        10        10        10        10        14        16 
dram[2]:        44        45        41        40        30        30        24        20        22        22        18        18        14        18        20        20 
dram[3]:        43        42        39        41        27        29        20        22        22        20        14        12        14        18        18        16 
dram[4]:        45        46        44        45        33        31        20        22        22        22        18        18        14        18        20        20 
dram[5]:        44        45        40        41        26        28        20        18        20        20        16        14        14        18        16        16 
maximum service time to same row:
dram[0]:      8352      5433      1629      1822      1619      1377      1975      1804     36506     36494     57502     61993     90940     95579    118607    118801 
dram[1]:      7830      7628      1542      3435      1381      1382      1729      1829     36187     35982     58143     63691     93945     96217    118103    118778 
dram[2]:     10018      7818      2272      2440      2098      2189      2014      2010     35921     36120     61369     57266     95140     90545    118199    118284 
dram[3]:      9901      8534      2316      2281      1872      2247      1954      1963     36119     35739     63192     58320     96071     93571    118448    118160 
dram[4]:      9963      9044      2439      2374      2020      2375      2164      2235     35682     36170     57313     61278     90515     94854    118095    118766 
dram[5]:      5081      9535      2332      2177      1837      2007      1991      2084     35237     35785     57850     62876     93398     95846    117838    118141 
average row accesses per activate:
dram[0]: 10.714286 26.000000 32.000000 32.000000  5.000000  6.307693  9.636364  9.500000 11.777778 11.777778 10.000000 10.000000  9.909091  6.600000  9.090909 10.111111 
dram[1]: 11.000000 25.333334 32.000000 16.250000  4.277778  5.571429  6.222222  6.187500  8.000000  7.133333  6.235294  7.133333  7.133333  6.176471  5.411765 10.000000 
dram[2]: 13.166667 26.333334 36.500000 36.000000  6.846154  5.733333  9.083333  9.636364 15.000000 11.666667  8.230769  9.727273  7.615385 10.090909  8.181818  8.818182 
dram[3]: 15.400000 25.333334 35.500000 36.500000  7.272727  6.384615  5.611111  7.714286 11.888889  9.181818  8.230769  8.230769  8.153846  9.363636  6.846154  8.545455 
dram[4]: 15.800000 26.666666 38.000000 38.500000  7.818182  6.769231  9.727273 10.090909  9.181818  9.454545 10.000000  9.818182 10.090909 10.000000 10.555555  7.230769 
dram[5]: 26.000000 20.000000 36.000000 36.500000  5.333333  6.000000  7.000000  6.250000  9.363636  8.307693  8.076923  8.307693  9.454545  7.923077  7.230769  8.272727 
average row locality = 8972/978 = 9.173824
number of total memory accesses made:
dram[0]:         0         0         0         0         0         0         0         0         0         0         0         0         0         0         0         0 
dram[1]:         0         0         0         0         0         0         0         0         0         0         0         0         0         0         0         0 
dram[2]:         0         0         0         0         0         0         0         0         0         0         0         0         0         0         0         0 
dram[3]:         0         0         0         0         0         0         0         0         0         0         0         0         0         0         0         0 
dram[4]:         0         0         0         0         0         0         0         0         0         0         0         0         0         0         0         0 
dram[5]:         0         0         0         0         0         0         0         0         0         0         0         0         0         0         0         0 
total accesses: 0
min_bank_accesses = 0!
min_chip_accesses = 0!
number of total read accesses:
dram[0]:        35        34        32        32        37        37        48        48        48        48        48        48        48        48        42        42 
dram[1]:        35        34        32        32        37        37        48        48        48        48        48        48        48        48        42        42 
dram[2]:        35        34        32        32        37        38        48        48        48        48        48        48        48        48        42        42 
dram[3]:        34        34        32        32        37        38        48        48        48        48        48        48        48        48        42        42 
dram[4]:        34        34        32        32        37        38        48        48        48        48        48        48        48        48        42        42 
dram[5]:        34        35        32        32        37        38        48        48        48        48        48        48        48        48        42        42 
total reads: 4052
bank skew: 48/32 = 1.50
chip skew: 676/675 = 1.00
number of total write accesses:
dram[0]:        40        44        32        32        43        45        58        66        58        58        62        62        61        51        58        49 
dram[1]:        42        42        32        33        40        41        64        51        56        59        58        59        59        57        50        48 
dram[2]:        44        45        41        40        52        48        61        58        57        57        59        59        51        63        48        55 
dram[3]:        43        42        39        41        43        45        53        60        59        53        59        59        58        55        47        52 
dram[4]:        45        46        44        45        49        50        59        63        53        56        62        60        63        52        53        52 
dram[5]:        44        45        40        41        43        46        57        52        55        60        57        60        56        55        52        49 
total reads: 4920
bank skew: 66/32 = 2.06
chip skew: 852/791 = 1.08
average mf latency per bank:
dram[0]:       2106      1616      2166      2034      1955      1727      1815      1531      1686      1608      1491      1519      1516      1603      1436      1532
dram[1]:       2029      1644      1989      1968      1745      1800      1451      1632      1503      1504      1470      1471      1410      1440      1428      1419
dram[2]:       1921      1869      2110      2037      1822      1804      1617      1836      1751      1683      1600      1547      1661      1490      1648      1451
dram[3]:       1775      1917      2066      2077      1827      1806      1722      1630      1644      1652      1579      1515      1551      1569      1574      1452
dram[4]:       1868      1690      2131      1994      1829      1830      1759      1587      1745      1678      1511      1621      1529      1669      1499      1618
dram[5]:       1809      1724      2029      1975      1743      1749      1605      1620      1624      1468      1531      1483      1518      1494      1430      1519
maximum mf latency per bank:
dram[0]:       1476      1312      1813      1255      1572      1381      1585      1459      1550      1399      1339      1311      1463      1334      1619      1641
dram[1]:        938       995      1471      1329      1136      1256      1314      1167      1116      1288      1109      1125      1458      1112      1221      1332
dram[2]:       1507      1373      1524      1513      1379      1347      1472      1773      1437      1453      1421      1395      1392      1456      1376      1337
dram[3]:       1110      1244      1374      1401      1214      1236      1325      1430      1300      1185      1252      1270      1284      1258      1162      1154
dram[4]:       1515      1641      1611      1544      1480      1612      1670      1744      1596      1605      1526      1509      1466      1525      1655      1643
dram[5]:       1141      1235      1430      1516      1206      1247      1310      1269      1472      1218      1198      1175      1153      1201      1291      1375

Number of Memory Banks Accessed per Memory Operation per Warp (from 0):
0	0	0	0	0	0	0	0	0	0	0	0	0	0	0	0	0	0	0	0	0	0	0	0	0	0	0	0	0	0	0	0	0	0	0	0	0	0	0	0	0	0	0	0	0	0	0	0	0	0	0	0	0	0	0	0	0	0	0	0	0	0	0	0	0	0	0	0	0	0	0	0	0	0	0	0	0	0	0	0	0	0	0	0	0	0	0	0	0	0	0	0	0	0	0	0	
Average # of Memory Banks Accessed per Memory Operation per Warp=-nan

position of mrq chosen
0	0	0	0	0	0	0	0	0	0	0	0	0	0	0	0	

average position of mrq chosen = -nan
Memory Partition 0: 
Cache L2_bank_000:
MSHR contents

Cache L2_bank_001:
MSHR contents

In Dram Latency Queue (total = 0): 
DRAM[0]: 16 bks, busW=4 BL=8 CL=12, tRRD=2 tCCD=6, tRCD=12 tRAS=28 tRP=12 tRC=40
n_cmd=184337 n_nop=180010 n_act=152 n_pre=136 n_req=1494 n_rd=2700 n_write=1339 bw_util=0.04382
n_activity=14883 dram_eff=0.5428
bk0: 140a 180908i bk1: 136a 181072i bk2: 128a 180537i bk3: 128a 180846i bk4: 148a 179265i bk5: 148a 179375i bk6: 192a 178367i bk7: 192a 178747i bk8: 192a 179189i bk9: 192a 179557i bk10: 192a 179176i bk11: 192a 179860i bk12: 192a 179230i bk13: 192a 179254i bk14: 168a 179934i bk15: 168a 179983i 
dram_util_bins: 0 0 0 0 0 0 0 0 0 0
dram_eff_bins: 0 0 0 0 0 0 0 0 0 0
mrqq: max=16 avg=0.745396
Memory Partition 1: 
Cache L2_bank_002:
MSHR contents

Cache L2_bank_003:
MSHR contents

In Dram Latency Queue (total = 0): 
DRAM[1]: 16 bks, busW=4 BL=8 CL=12, tRRD=2 tCCD=6, tRCD=12 tRAS=28 tRP=12 tRC=40
n_cmd=184337 n_nop=179941 n_act=200 n_pre=184 n_req=1466 n_rd=2700 n_write=1312 bw_util=0.04353
n_activity=14978 dram_eff=0.5357
bk0: 140a 180704i bk1: 136a 181454i bk2: 128a 180999i bk3: 128a 180915i bk4: 148a 179614i bk5: 148a 178937i bk6: 192a 178982i bk7: 192a 179161i bk8: 192a 180151i bk9: 192a 179389i bk10: 192a 179253i bk11: 192a 179714i bk12: 192a 179465i bk13: 192a 179408i bk14: 168a 180313i bk15: 168a 180135i 
dram_util_bins: 0 0 0 0 0 0 0 0 0 0
dram_eff_bins: 0 0 0 0 0 0 0 0 0 0
mrqq: max=16 avg=0.620407
Memory Partition 2: 
Cache L2_bank_004:
MSHR contents

Cache L2_bank_005:
MSHR contents

In Dram Latency Queue (total = 0): 
DRAM[2]: 16 bks, busW=4 BL=8 CL=12, tRRD=2 tCCD=6, tRCD=12 tRAS=28 tRP=12 tRC=40
n_cmd=184337 n_nop=179964 n_act=150 n_pre=134 n_req=1514 n_rd=2704 n_write=1385 bw_util=0.04436
n_activity=15070 dram_eff=0.5427
bk0: 140a 180577i bk1: 136a 180827i bk2: 128a 180386i bk3: 128a 180861i bk4: 148a 179133i bk5: 152a 179139i bk6: 192a 179161i bk7: 192a 178771i bk8: 192a 179832i bk9: 192a 179402i bk10: 192a 179366i bk11: 192a 179340i bk12: 192a 179258i bk13: 192a 179440i bk14: 168a 180180i bk15: 168a 180090i 
dram_util_bins: 0 0 0 0 0 0 0 0 0 0
dram_eff_bins: 0 0 0 0 0 0 0 0 0 0
mrqq: max=16 avg=0.710129
Memory Partition 3: 
Cache L2_bank_006:
MSHR contents

Cache L2_bank_007:
MSHR contents

In Dram Latency Queue (total = 0): 
DRAM[3]: 16 bks, busW=4 BL=8 CL=12, tRRD=2 tCCD=6, tRCD=12 tRAS=28 tRP=12 tRC=40
n_cmd=184337 n_nop=179982 n_act=162 n_pre=146 n_req=1483 n_rd=2700 n_write=1347 bw_util=0.04391
n_activity=14999 dram_eff=0.5396
bk0: 136a 181112i bk1: 136a 181324i bk2: 128a 180862i bk3: 128a 180866i bk4: 148a 179784i bk5: 152a 179572i bk6: 192a 179448i bk7: 192a 178650i bk8: 192a 179242i bk9: 192a 179674i bk10: 192a 178873i bk11: 192a 179430i bk12: 192a 179255i bk13: 192a 178880i bk14: 168a 179770i bk15: 168a 180052i 
dram_util_bins: 0 0 0 0 0 0 0 0 0 0
dram_eff_bins: 0 0 0 0 0 0 0 0 0 0
mrqq: max=16 avg=0.708035
Memory Partition 4: 
Cache L2_bank_008:
MSHR contents

Cache L2_bank_009:
MSHR contents

In Dram Latency Queue (total = 0): 
DRAM[4]: 16 bks, busW=4 BL=8 CL=12, tRRD=2 tCCD=6, tRCD=12 tRAS=28 tRP=12 tRC=40
n_cmd=184337 n_nop=179946 n_act=145 n_pre=129 n_req=1527 n_rd=2700 n_write=1417 bw_util=0.04467
n_activity=15092 dram_eff=0.5456
bk0: 136a 181045i bk1: 136a 181391i bk2: 128a 180877i bk3: 128a 180973i bk4: 148a 179274i bk5: 152a 178615i bk6: 192a 178310i bk7: 192a 178675i bk8: 192a 179769i bk9: 192a 179739i bk10: 192a 179328i bk11: 192a 178940i bk12: 192a 178823i bk13: 192a 179526i bk14: 168a 179816i bk15: 168a 179701i 
dram_util_bins: 0 0 0 0 0 0 0 0 0 0
dram_eff_bins: 0 0 0 0 0 0 0 0 0 0
mrqq: max=16 avg=0.774722
Memory Partition 5: 
Cache L2_bank_010:
MSHR contents

Cache L2_bank_011:
MSHR contents

In Dram Latency Queue (total = 0): 
DRAM[5]: 16 bks, busW=4 BL=8 CL=12, tRRD=2 tCCD=6, tRCD=12 tRAS=28 tRP=12 tRC=40
n_cmd=184337 n_nop=179953 n_act=169 n_pre=153 n_req=1488 n_rd=2704 n_write=1358 bw_util=0.04407
n_activity=15487 dram_eff=0.5246
bk0: 136a 181409i bk1: 140a 180771i bk2: 128a 180819i bk3: 128a 180869i bk4: 148a 179856i bk5: 152a 179595i bk6: 192a 179252i bk7: 192a 179261i bk8: 192a 179616i bk9: 192a 179906i bk10: 192a 179734i bk11: 192a 179699i bk12: 192a 180013i bk13: 192a 180299i bk14: 168a 180765i bk15: 168a 180096i 
dram_util_bins: 0 0 0 0 0 0 0 0 0 0
dram_eff_bins: 0 0 0 0 0 0 0 0 0 0
mrqq: max=16 avg=0.634669

========= L2 cache stats =========
L2_cache_bank[0]: Access = 6704, Miss = 338, Miss_rate = 0.050, Pending_hits = 86, Reservation_fails = 789
L2_cache_bank[1]: Access = 6721, Miss = 337, Miss_rate = 0.050, Pending_hits = 78, Reservation_fails = 185
L2_cache_bank[2]: Access = 6707, Miss = 338, Miss_rate = 0.050, Pending_hits = 75, Reservation_fails = 367
L2_cache_bank[3]: Access = 6699, Miss = 337, Miss_rate = 0.050, Pending_hits = 61, Reservation_fails = 138
L2_cache_bank[4]: Access = 6837, Miss = 338, Miss_rate = 0.049, Pending_hits = 87, Reservation_fails = 512
L2_cache_bank[5]: Access = 6915, Miss = 338, Miss_rate = 0.049, Pending_hits = 95, Reservation_fails = 199
L2_cache_bank[6]: Access = 7026, Miss = 337, Miss_rate = 0.048, Pending_hits = 72, Reservation_fails = 218
L2_cache_bank[7]: Access = 7274, Miss = 338, Miss_rate = 0.046, Pending_hits = 77, Reservation_fails = 200
L2_cache_bank[8]: Access = 7088, Miss = 337, Miss_rate = 0.048, Pending_hits = 99, Reservation_fails = 205
L2_cache_bank[9]: Access = 6835, Miss = 338, Miss_rate = 0.049, Pending_hits = 94, Reservation_fails = 122
L2_cache_bank[10]: Access = 7026, Miss = 337, Miss_rate = 0.048, Pending_hits = 75, Reservation_fails = 427
L2_cache_bank[11]: Access = 6839, Miss = 339, Miss_rate = 0.050, Pending_hits = 81, Reservation_fails = 262
L2_total_cache_accesses = 82671
L2_total_cache_misses = 4052
L2_total_cache_miss_rate = 0.0490
L2_total_cache_pending_hits = 980
L2_total_cache_reservation_fails = 3624
L2_total_cache_breakdown:
	L2_cache_stats_breakdown[GLOBAL_ACC_R][HIT] = 3923
	L2_cache_stats_breakdown[GLOBAL_ACC_R][HIT_RESERVED] = 3
	L2_cache_stats_breakdown[GLOBAL_ACC_R][MISS] = 1
	L2_cache_stats_breakdown[GLOBAL_ACC_R][RESERVATION_FAIL] = 106
	L2_cache_stats_breakdown[LOCAL_ACC_R][HIT] = 7489
	L2_cache_stats_breakdown[CONST_ACC_R][HIT] = 22
	L2_cache_stats_breakdown[CONST_ACC_R][HIT_RESERVED] = 6
	L2_cache_stats_breakdown[CONST_ACC_R][MISS] = 2
	L2_cache_stats_breakdown[CONST_ACC_R][RESERVATION_FAIL] = 525
	L2_cache_stats_breakdown[GLOBAL_ACC_W][HIT] = 6510
	L2_cache_stats_breakdown[GLOBAL_ACC_W][HIT_RESERVED] = 658
	L2_cache_stats_breakdown[GLOBAL_ACC_W][MISS] = 1024
	L2_cache_stats_breakdown[GLOBAL_ACC_W][RESERVATION_FAIL] = 3
	L2_cache_stats_breakdown[LOCAL_ACC_W][HIT] = 41309
	L2_cache_stats_breakdown[LOCAL_ACC_W][HIT_RESERVED] = 238
	L2_cache_stats_breakdown[LOCAL_ACC_W][MISS] = 3000
	L2_cache_stats_breakdown[LOCAL_ACC_W][RESERVATION_FAIL] = 29
	L2_cache_stats_breakdown[L1_WRBK_ACC][HIT] = 5188
	L2_cache_stats_breakdown[INST_ACC_R][HIT] = 13198
	L2_cache_stats_breakdown[INST_ACC_R][HIT_RESERVED] = 75
	L2_cache_stats_breakdown[INST_ACC_R][MISS] = 25
	L2_cache_stats_breakdown[INST_ACC_R][RESERVATION_FAIL] = 2961
L2_cache_data_port_util = 0.176
L2_cache_fill_port_util = 0.019

icnt_total_pkts_mem_to_simt=176399
icnt_total_pkts_simt_to_mem=294740
LD_mem_lat_dist  0 0 0 0 0 0 0 0 0 0 0 0 0 0 0 0 0 0 0 0 0 0 0 0 0 0 0
ST_mem_lat_dist  0 0 0 0 0 0 0 0 0 0 0 0 0 0 0 0 0 0 0 0 0 0 0 0 0 0 0
----------------------------Interconnect-DETAILS--------------------------------
Class 0:
Packet latency average = 16.8892
	minimum = 6
	maximum = 627
Network latency average = 13.2609
	minimum = 6
	maximum = 601
Slowest packet = 4745
Flit latency average = 12.2748
	minimum = 6
	maximum = 597
Slowest flit = 14815
Fragmentation average = 0.0883088
	minimum = 0
	maximum = 503
Injected packet rate average = 0.042475
	minimum = 0.0367275 (at node 3)
	maximum = 0.0489796 (at node 22)
Accepted packet rate average = 0.042475
	minimum = 0.0350734 (at node 3)
	maximum = 0.0520874 (at node 22)
Injected flit rate average = 0.124952
	minimum = 0.0999356 (at node 19)
	maximum = 0.152302 (at node 0)
Accepted flit rate average= 0.124952
	minimum = 0.0677193 (at node 0)
	maximum = 0.183767 (at node 22)
Injected packet length average = 2.94179
Accepted packet length average = 2.94179
Total in-flight flits = 0 (0 measured)
====== Overall Traffic Statistics ======
====== Traffic class 0 ======
Packet latency average = 16.8892 (1 samples)
	minimum = 6 (1 samples)
	maximum = 627 (1 samples)
Network latency average = 13.2609 (1 samples)
	minimum = 6 (1 samples)
	maximum = 601 (1 samples)
Flit latency average = 12.2748 (1 samples)
	minimum = 6 (1 samples)
	maximum = 597 (1 samples)
Fragmentation average = 0.0883088 (1 samples)
	minimum = 0 (1 samples)
	maximum = 503 (1 samples)
Injected packet rate average = 0.042475 (1 samples)
	minimum = 0.0367275 (1 samples)
	maximum = 0.0489796 (1 samples)
Accepted packet rate average = 0.042475 (1 samples)
	minimum = 0.0350734 (1 samples)
	maximum = 0.0520874 (1 samples)
Injected flit rate average = 0.124952 (1 samples)
	minimum = 0.0999356 (1 samples)
	maximum = 0.152302 (1 samples)
Accepted flit rate average = 0.124952 (1 samples)
	minimum = 0.0677193 (1 samples)
	maximum = 0.183767 (1 samples)
Injected packet size average = 2.94179 (1 samples)
Accepted packet size average = 2.94179 (1 samples)
Hops average = 1 (1 samples)
----------------------------END-of-Interconnect-DETAILS-------------------------


gpgpu_simulation_time = 0 days, 0 hrs, 2 min, 24 sec (144 sec)
gpgpu_simulation_rate = 435295 (inst/sec)
GPGPU-Sim API: Stream Manager State
gpgpu_simulation_rate = 969 (cycle/sec)
GPGPU-Sim: detected inactive GPU simulation thread

checksum=75ef40cb5b8e
Kernel Time: 142419.328125 
