

        *** GPGPU-Sim Simulator Version 3.2.2  [build 0] ***


GPGPU-Sim PTX: simulation mode 0 (can change with PTX_SIM_MODE_FUNC environment variable:
               1=functional simulation only, 0=detailed performance simulator)
GPGPU-Sim: Configuration options:

-network_mode                           1 # Interconnection network mode
-inter_config_file   config_fermi_islip.icnt # Interconnection network config file
-gpgpu_ptx_use_cuobjdump                    1 # Use cuobjdump to extract ptx and sass from binaries
-gpgpu_experimental_lib_support                    0 # Try to extract code from cuda libraries [Broken because of unknown cudaGetExportTable]
-gpgpu_ptx_convert_to_ptxplus                    0 # Convert SASS (native ISA) to ptxplus and run ptxplus
-gpgpu_ptx_force_max_capability                   20 # Force maximum compute capability
-gpgpu_ptx_inst_debug_to_file                    0 # Dump executed instructions' debug information to file
-gpgpu_ptx_inst_debug_file       inst_debug.txt # Executed instructions' debug output file
-gpgpu_ptx_inst_debug_thread_uid                    1 # Thread UID for executed instructions' debug output
-gpgpu_simd_model                       1 # 1 = post-dominator
-gpgpu_shader_core_pipeline              1536:32 # shader core pipeline config, i.e., {<nthread>:<warpsize>}
-gpgpu_tex_cache:l1  4:128:24,L:R:m:N:L,F:128:4,128:2 # per-shader L1 texture cache  (READ-ONLY) config  {<nsets>:<bsize>:<assoc>,<rep>:<wr>:<alloc>:<wr_alloc>,<mshr>:<N>:<merge>,<mq>:<rf>}
-gpgpu_const_cache:l1 64:64:2,L:R:f:N:L,A:2:32,4 # per-shader L1 constant memory cache  (READ-ONLY) config  {<nsets>:<bsize>:<assoc>,<rep>:<wr>:<alloc>:<wr_alloc>,<mshr>:<N>:<merge>,<mq>} 
-gpgpu_cache:il1     4:128:4,L:R:f:N:L,A:2:32,4 # shader L1 instruction cache config  {<nsets>:<bsize>:<assoc>,<rep>:<wr>:<alloc>:<wr_alloc>,<mshr>:<N>:<merge>,<mq>} 
-gpgpu_cache:dl1     32:128:4,L:L:m:N:H,A:32:8,8 # per-shader L1 data cache config  {<nsets>:<bsize>:<assoc>,<rep>:<wr>:<alloc>:<wr_alloc>,<mshr>:<N>:<merge>,<mq> | none}
-gpgpu_cache:dl1PrefL1                 none # per-shader L1 data cache config  {<nsets>:<bsize>:<assoc>,<rep>:<wr>:<alloc>:<wr_alloc>,<mshr>:<N>:<merge>,<mq> | none}
-gpgpu_cache:dl1PreShared                 none # per-shader L1 data cache config  {<nsets>:<bsize>:<assoc>,<rep>:<wr>:<alloc>:<wr_alloc>,<mshr>:<N>:<merge>,<mq> | none}
-gmem_skip_L1D                          0 # global memory access skip L1D cache (implements -Xptxas -dlcm=cg, default=no skip)
-gpgpu_perfect_mem                      0 # enable perfect memory mode (no cache miss)
-n_regfile_gating_group                    4 # group of lanes that should be read/written together)
-gpgpu_clock_gated_reg_file                    0 # enable clock gated reg file for power calculations
-gpgpu_clock_gated_lanes                    0 # enable clock gated lanes for power calculations
-gpgpu_shader_registers                32768 # Number of registers per shader core. Limits number of concurrent CTAs. (default 8192)
-gpgpu_shader_cta                       8 # Maximum number of concurrent CTAs in shader (default 8)
-gpgpu_num_cta_barriers                   16 # Maximum number of named barriers per CTA (default 16)
-gpgpu_n_clusters                      15 # number of processing clusters
-gpgpu_n_cores_per_cluster                    1 # number of simd cores per cluster
-gpgpu_n_cluster_ejection_buffer_size                    8 # number of packets in ejection buffer
-gpgpu_n_ldst_response_buffer_size                    2 # number of response packets in ld/st unit ejection buffer
-gpgpu_shmem_size                   16384 # Size of shared memory per shader core (default 16kB)
-gpgpu_shmem_size                   49152 # Size of shared memory per shader core (default 16kB)
-gpgpu_shmem_size_PrefL1                16384 # Size of shared memory per shader core (default 16kB)
-gpgpu_shmem_size_PrefShared                16384 # Size of shared memory per shader core (default 16kB)
-gpgpu_shmem_num_banks                   32 # Number of banks in the shared memory in each shader core (default 16)
-gpgpu_shmem_limited_broadcast                    0 # Limit shared memory to do one broadcast per cycle (default on)
-gpgpu_shmem_warp_parts                    1 # Number of portions a warp is divided into for shared memory bank conflict check 
-gpgpu_warpdistro_shader                   -1 # Specify which shader core to collect the warp size distribution from
-gpgpu_warp_issue_shader                    0 # Specify which shader core to collect the warp issue distribution from
-gpgpu_local_mem_map                    1 # Mapping from local memory space address to simulated GPU physical address space (default = enabled)
-gpgpu_num_reg_banks                   16 # Number of register banks (default = 8)
-gpgpu_reg_bank_use_warp_id                    0 # Use warp ID in mapping registers to banks (default = off)
-gpgpu_operand_collector_num_units_sp                    6 # number of collector units (default = 4)
-gpgpu_operand_collector_num_units_sfu                    8 # number of collector units (default = 4)
-gpgpu_operand_collector_num_units_mem                    2 # number of collector units (default = 2)
-gpgpu_operand_collector_num_units_gen                    0 # number of collector units (default = 0)
-gpgpu_operand_collector_num_in_ports_sp                    2 # number of collector unit in ports (default = 1)
-gpgpu_operand_collector_num_in_ports_sfu                    1 # number of collector unit in ports (default = 1)
-gpgpu_operand_collector_num_in_ports_mem                    1 # number of collector unit in ports (default = 1)
-gpgpu_operand_collector_num_in_ports_gen                    0 # number of collector unit in ports (default = 0)
-gpgpu_operand_collector_num_out_ports_sp                    2 # number of collector unit in ports (default = 1)
-gpgpu_operand_collector_num_out_ports_sfu                    1 # number of collector unit in ports (default = 1)
-gpgpu_operand_collector_num_out_ports_mem                    1 # number of collector unit in ports (default = 1)
-gpgpu_operand_collector_num_out_ports_gen                    0 # number of collector unit in ports (default = 0)
-gpgpu_coalesce_arch                   13 # Coalescing arch (default = 13, anything else is off for now)
-gpgpu_num_sched_per_core                    2 # Number of warp schedulers per core
-gpgpu_max_insn_issue_per_warp                    1 # Max number of instructions that can be issued per warp in one cycle by scheduler
-gpgpu_simt_core_sim_order                    1 # Select the simulation order of cores in a cluster (0=Fix, 1=Round-Robin)
-gpgpu_pipeline_widths        2,1,1,2,1,1,2 # Pipeline widths ID_OC_SP,ID_OC_SFU,ID_OC_MEM,OC_EX_SP,OC_EX_SFU,OC_EX_MEM,EX_WB
-gpgpu_num_sp_units                     2 # Number of SP units (default=1)
-gpgpu_num_sfu_units                    1 # Number of SF units (default=1)
-gpgpu_num_mem_units                    1 # Number if ldst units (default=1) WARNING: not hooked up to anything
-gpgpu_scheduler                      gto # Scheduler configuration: < lrr | gto | two_level_active > If two_level_active:<num_active_warps>:<inner_prioritization>:<outer_prioritization>For complete list of prioritization values see shader.h enum scheduler_prioritization_typeDefault: gto
-gpgpu_dram_scheduler                    1 # 0 = fifo, 1 = FR-FCFS (defaul)
-gpgpu_dram_partition_queues              8:8:8:8 # i2$:$2d:d2$:$2i
-l2_ideal                               0 # Use a ideal L2 cache that always hit
-gpgpu_cache:dl2     64:128:8,L:B:m:W:L,A:32:4,4:0,32 # unified banked L2 data cache config  {<nsets>:<bsize>:<assoc>,<rep>:<wr>:<alloc>:<wr_alloc>,<mshr>:<N>:<merge>,<mq>}
-gpgpu_cache:dl2_texture_only                    0 # L2 cache used for texture only
-gpgpu_n_mem                            6 # number of memory modules (e.g. memory controllers) in gpu
-gpgpu_n_sub_partition_per_mchannel                    2 # number of memory subpartition in each memory module
-gpgpu_n_mem_per_ctrlr                    2 # number of memory chips per memory controller
-gpgpu_memlatency_stat                   14 # track and display latency statistics 0x2 enables MC, 0x4 enables queue logs
-gpgpu_frfcfs_dram_sched_queue_size                   16 # 0 = unlimited (default); # entries per chip
-gpgpu_dram_return_queue_size                  116 # 0 = unlimited (default); # entries per chip
-gpgpu_dram_buswidth                    4 # default = 4 bytes (8 bytes per cycle at DDR)
-gpgpu_dram_burst_length                    8 # Burst length of each DRAM request (default = 4 data bus cycle)
-dram_data_command_freq_ratio                    2 # Frequency ratio between DRAM data bus and command bus (default = 2 times, i.e. DDR)
-gpgpu_dram_timing_opt nbk=16:CCD=2:RRD=6:RCD=12:RAS=28:RP=12:RC=40: CL=12:WL=4:CDLR=5:WR=12:nbkgrp=4:CCDL=3:RTPL=2 # DRAM timing parameters = {nbk:tCCD:tRRD:tRCD:tRAS:tRP:tRC:CL:WL:tCDLR:tWR:nbkgrp:tCCDL:tRTPL}
-rop_latency                          120 # ROP queue latency (default 85)
-dram_latency                         100 # DRAM latency (default 30)
-gpgpu_mem_addr_mapping dramid@8;00000000.00000000.00000000.00000000.0000RRRR.RRRRRRRR.BBBCCCCB.CCSSSSSS # mapping memory address to dram model {dramid@<start bit>;<memory address map>}
-gpgpu_mem_addr_test                    0 # run sweep test to check address mapping for aliased address
-gpgpu_mem_address_mask                    1 # 0 = old addressing mask, 1 = new addressing mask, 2 = new add. mask + flipped bank sel and chip sel bits
-gpuwattch_xml_file  gpuwattch_gtx480.xml # GPUWattch XML file
-power_simulation_enabled                    0 # Turn on power simulator (1=On, 0=Off)
-power_per_cycle_dump                    0 # Dump detailed power output each cycle
-power_trace_enabled                    0 # produce a file for the power trace (1=On, 0=Off)
-power_trace_zlevel                     6 # Compression level of the power trace output log (0=no comp, 9=highest)
-steady_power_levels_enabled                    0 # produce a file for the steady power levels (1=On, 0=Off)
-steady_state_definition                  8:4 # allowed deviation:number of samples
-gpgpu_max_cycle                        0 # terminates gpu simulation early (0 = no limit)
-gpgpu_max_insn                         0 # terminates gpu simulation early (0 = no limit)
-gpgpu_max_cta                          0 # terminates gpu simulation early (0 = no limit)
-gpgpu_runtime_stat                   500 # display runtime statistics such as dram utilization {<freq>:<flag>}
-liveness_message_freq                    1 # Minimum number of seconds between simulation liveness messages (0 = always print)
-gpgpu_flush_l1_cache                    0 # Flush L1 cache at the end of each kernel call
-gpgpu_flush_l2_cache                    0 # Flush L2 cache at the end of each kernel call
-gpgpu_deadlock_detect                    1 # Stop the simulation at deadlock (1=on (default), 0=off)
-gpgpu_ptx_instruction_classification                    0 # if enabled will classify ptx instruction types per kernel (Max 255 kernels now)
-gpgpu_ptx_sim_mode                     0 # Select between Performance (default) or Functional simulation (1)
-gpgpu_clock_domains 700.0:700.0:700.0:924.0 # Clock Domain Frequencies in MhZ {<Core Clock>:<ICNT Clock>:<L2 Clock>:<DRAM Clock>}
-gpgpu_max_concurrent_kernel                    8 # maximum kernels that can run concurrently on GPU
-gpgpu_cflog_interval                    0 # Interval between each snapshot in control flow logger
-visualizer_enabled                     0 # Turn on visualizer output (1=On, 0=Off)
-visualizer_outputfile                 NULL # Specifies the output log file for visualizer
-visualizer_zlevel                      6 # Compression level of the visualizer output log (0=no comp, 9=highest)
-trace_enabled                          0 # Turn on traces
-trace_components                    none # comma seperated list of traces to enable. Complete list found in trace_streams.tup. Default none
-trace_sampling_core                    0 # The core which is printed using CORE_DPRINTF. Default 0
-trace_sampling_memory_partition                   -1 # The memory partition which is printed using MEMPART_DPRINTF. Default -1 (i.e. all)
-enable_ptx_file_line_stats                    1 # Turn on PTX source line statistic profiling. (1 = On)
-ptx_line_stats_filename gpgpu_inst_stats.txt # Output file for PTX source line statistics.
-save_embedded_ptx                      0 # saves ptx files embedded in binary as <n>.ptx
-keep                                   0 # keep intermediate files created by GPGPU-Sim when interfacing with external programs
-gpgpu_ptx_save_converted_ptxplus                    0 # Saved converted ptxplus to a file
-ptx_opcode_latency_int         4,13,4,5,145 # Opcode latencies for integers <ADD,MAX,MUL,MAD,DIV>Default 1,1,19,25,145
-ptx_opcode_latency_fp          4,13,4,5,39 # Opcode latencies for single precision floating points <ADD,MAX,MUL,MAD,DIV>Default 1,1,1,1,30
-ptx_opcode_latency_dp         8,19,8,8,330 # Opcode latencies for double precision floating points <ADD,MAX,MUL,MAD,DIV>Default 8,8,8,8,335
-ptx_opcode_initiation_int            1,2,2,1,8 # Opcode initiation intervals for integers <ADD,MAX,MUL,MAD,DIV>Default 1,1,4,4,32
-ptx_opcode_initiation_fp            1,2,1,1,4 # Opcode initiation intervals for single precision floating points <ADD,MAX,MUL,MAD,DIV>Default 1,1,1,1,5
-ptx_opcode_initiation_dp         8,16,8,8,130 # Opcode initiation intervals for double precision floating points <ADD,MAX,MUL,MAD,DIV>Default 8,8,8,8,130
DRAM Timing Options:
nbk                                    16 # number of banks
CCD                                     2 # column to column delay
RRD                                     6 # minimal delay between activation of rows in different banks
RCD                                    12 # row to column delay
RAS                                    28 # time needed to activate row
RP                                     12 # time needed to precharge (deactivate) row
RC                                     40 # row cycle time
CDLR                                    5 # switching from write to read (changes tWTR)
WR                                     12 # last data-in to row precharge
CL                                     12 # CAS latency
WL                                      4 # Write latency
nbkgrp                                  4 # number of bank groups
CCDL                                    3 # column to column delay between accesses to different bank groups
RTPL                                    2 # read to precharge delay between accesses to different bank groups
Total number of memory sub partition = 12
addr_dec_mask[CHIP]  = 0000000000000000 	high:64 low:0
addr_dec_mask[BK]    = 000000000000e100 	high:16 low:8
addr_dec_mask[ROW]   = 000000000fff0000 	high:28 low:16
addr_dec_mask[COL]   = 0000000000001eff 	high:13 low:0
addr_dec_mask[BURST] = 000000000000003f 	high:6 low:0
sub_partition_id_mask = 0000000000000100
GPGPU-Sim uArch: clock freqs: 700000000.000000:700000000.000000:700000000.000000:924000000.000000
GPGPU-Sim uArch: clock periods: 0.00000000142857142857:0.00000000142857142857:0.00000000142857142857:0.00000000108225108225
*** Initializing Memory Statistics ***
GPGPU-Sim uArch: interconnect node map (shaderID+MemID to icntID)
GPGPU-Sim uArch: Memory nodes ID start from index: 15
GPGPU-Sim uArch:    0   1   2   3   4
GPGPU-Sim uArch:    5   6   7   8   9
GPGPU-Sim uArch:   10  11  12  13  14
GPGPU-Sim uArch:   15  16  17  18  19
GPGPU-Sim uArch:   20  21  22  23  24
GPGPU-Sim uArch:   25  26
GPGPU-Sim uArch: interconnect node reverse map (icntID to shaderID+MemID)
GPGPU-Sim uArch: Memory nodes start from ID: 15
GPGPU-Sim uArch:    0   1   2   3   4
GPGPU-Sim uArch:    5   6   7   8   9
GPGPU-Sim uArch:   10  11  12  13  14
GPGPU-Sim uArch:   15  16  17  18  19
GPGPU-Sim uArch:   20  21  22  23  24
GPGPU-Sim uArch:   25  26
c498d9f32ab5dd92351405d48e0f6df7  /sciclone/data20/adwait/applications/benchmarks/CUDA/BFS/gpgpu_ptx_sim__BFS
GPGPU-Sim uArch: performance model initialization complete.
GPGPU-Sim PTX: __cudaRegisterFatBinary, fat_cubin_handle = 1, filename=bfs.cu
self exe links to: /sciclone/data20/adwait/applications/benchmarks/CUDA/BFS/gpgpu_ptx_sim__BFS
Running md5sum using "md5sum /sciclone/data20/adwait/applications/benchmarks/CUDA/BFS/gpgpu_ptx_sim__BFS "
Parsing file _cuobjdump_complete_output_Zi9eqm
######### cuobjdump parser ########
## Adding new section ELF
Adding arch: sm_20
Adding identifier: bfs.cu
## Adding new section PTX
Adding ptx filename: _cuobjdump_1.ptx
Adding arch: sm_20
Adding identifier: bfs.cu
Done parsing!!!
GPGPU-Sim PTX: __cudaRegisterFunction _Z6KernelP4NodePiPbS2_S1_S2_i : hostFun 0x0x405636, fat_cubin_handle = 1
GPGPU-Sim PTX: instruction assembly for function '_Z6KernelP4NodePiPbS2_S1_S2_i'...   done.
GPGPU-Sim PTX: finding reconvergence points for '_Z6KernelP4NodePiPbS2_S1_S2_i'...
GPGPU-Sim PTX: Finding dominators for '_Z6KernelP4NodePiPbS2_S1_S2_i'...
GPGPU-Sim PTX: Finding immediate dominators for '_Z6KernelP4NodePiPbS2_S1_S2_i'...
GPGPU-Sim PTX: Finding postdominators for '_Z6KernelP4NodePiPbS2_S1_S2_i'...
GPGPU-Sim PTX: Finding immediate postdominators for '_Z6KernelP4NodePiPbS2_S1_S2_i'...
GPGPU-Sim PTX: pre-decoding instructions for '_Z6KernelP4NodePiPbS2_S1_S2_i'...
GPGPU-Sim PTX: reconvergence points for _Z6KernelP4NodePiPbS2_S1_S2_i...
GPGPU-Sim PTX:  1 (potential) branch divergence @  PC=0x030 (_1.ptx:72) @%p1 bra $Lt_0_5122;
GPGPU-Sim PTX:    immediate post dominator      @  PC=0x1e8 (_1.ptx:141) exit;
GPGPU-Sim PTX:  2 (potential) branch divergence @  PC=0x068 (_1.ptx:79) @%p2 bra $Lt_0_5122;
GPGPU-Sim PTX:    immediate post dominator      @  PC=0x1e8 (_1.ptx:141) exit;
GPGPU-Sim PTX:  3 (potential) branch divergence @  PC=0x0e0 (_1.ptx:97) @%p3 bra $Lt_0_5122;
GPGPU-Sim PTX:    immediate post dominator      @  PC=0x1e8 (_1.ptx:141) exit;
GPGPU-Sim PTX:  4 (potential) branch divergence @  PC=0x138 (_1.ptx:111) @%p4 bra $Lt_0_4354;
GPGPU-Sim PTX:    immediate post dominator      @  PC=0x1c8 (_1.ptx:134) add.s32 %r11, %r11, 1;
GPGPU-Sim PTX:  5 (potential) branch divergence @  PC=0x1e0 (_1.ptx:137) @%p5 bra $Lt_0_4098;
GPGPU-Sim PTX:    immediate post dominator      @  PC=0x1e8 (_1.ptx:141) exit;
GPGPU-Sim PTX: ... end of reconvergence points for _Z6KernelP4NodePiPbS2_S1_S2_i
GPGPU-Sim PTX: ... done pre-decoding instructions for '_Z6KernelP4NodePiPbS2_S1_S2_i'.
GPGPU-Sim PTX: finished parsing EMBEDDED .ptx file _1.ptx
Adding _cuobjdump_1.ptx with cubin handle 1
GPGPU-Sim PTX: extracting embedded .ptx to temporary file "_ptx_vob9uo"
Running: cat _ptx_vob9uo | sed 's/.version 1.5/.version 1.4/' | sed 's/, texmode_independent//' | sed 's/\(\.extern \.const\[1\] .b8 \w\+\)\[\]/\1\[1\]/' | sed 's/const\[.\]/const\[0\]/g' > _ptx2_7WdxVq
GPGPU-Sim PTX: generating ptxinfo using "$CUDA_INSTALL_PATH/bin/ptxas --gpu-name=sm_20 -v _ptx2_7WdxVq --output-file  /dev/null 2> _ptx_vob9uoinfo"
GPGPU-Sim PTX: Kernel '_Z6KernelP4NodePiPbS2_S1_S2_i' : regs=18, lmem=0, smem=0, cmem=84
GPGPU-Sim PTX: removing ptxinfo using "rm -f _ptx_vob9uo _ptx2_7WdxVq _ptx_vob9uoinfo"
GPGPU-Sim PTX: loading globals with explicit initializers... 
GPGPU-Sim PTX: finished loading globals (0 bytes total).
GPGPU-Sim PTX: loading constants with explicit initializers...  done.
Reading File
Input file: ./data/graph65536.txt
Read File
Copied Everything to GPU memory

GPGPU-Sim PTX: cudaLaunch for 0x0x405636 (mode=performance simulation) on stream 0
GPGPU-Sim PTX: pushing kernel '_Z6KernelP4NodePiPbS2_S1_S2_i' to stream 0, gridDim= (256,1,1) blockDim = (256,1,1) 
kernel '_Z6KernelP4NodePiPbS2_S1_S2_i' transfer to GPU hardware scheduler
GPGPU-Sim uArch: Shader 1 bind to kernel 1 '_Z6KernelP4NodePiPbS2_S1_S2_i'
GPGPU-Sim uArch: CTA/core = 6, limited by: threads regs
GPGPU-Sim uArch: core:  1, cta: 0 initialized @(1,0)
GPGPU-Sim uArch: Shader 2 bind to kernel 1 '_Z6KernelP4NodePiPbS2_S1_S2_i'
GPGPU-Sim uArch: core:  2, cta: 0 initialized @(1,0)
GPGPU-Sim uArch: Shader 3 bind to kernel 1 '_Z6KernelP4NodePiPbS2_S1_S2_i'
GPGPU-Sim uArch: core:  3, cta: 0 initialized @(1,0)
GPGPU-Sim uArch: Shader 4 bind to kernel 1 '_Z6KernelP4NodePiPbS2_S1_S2_i'
GPGPU-Sim uArch: core:  4, cta: 0 initialized @(1,0)
GPGPU-Sim uArch: Shader 5 bind to kernel 1 '_Z6KernelP4NodePiPbS2_S1_S2_i'
GPGPU-Sim uArch: core:  5, cta: 0 initialized @(1,0)
GPGPU-Sim uArch: Shader 6 bind to kernel 1 '_Z6KernelP4NodePiPbS2_S1_S2_i'
GPGPU-Sim uArch: core:  6, cta: 0 initialized @(1,0)
GPGPU-Sim uArch: Shader 7 bind to kernel 1 '_Z6KernelP4NodePiPbS2_S1_S2_i'
GPGPU-Sim uArch: core:  7, cta: 0 initialized @(1,0)
GPGPU-Sim uArch: Shader 8 bind to kernel 1 '_Z6KernelP4NodePiPbS2_S1_S2_i'
GPGPU-Sim uArch: core:  8, cta: 0 initialized @(1,0)
GPGPU-Sim uArch: Shader 9 bind to kernel 1 '_Z6KernelP4NodePiPbS2_S1_S2_i'
GPGPU-Sim uArch: core:  9, cta: 0 initialized @(1,0)
GPGPU-Sim uArch: Shader 10 bind to kernel 1 '_Z6KernelP4NodePiPbS2_S1_S2_i'
GPGPU-Sim uArch: core: 10, cta: 0 initialized @(1,0)
GPGPU-Sim uArch: Shader 11 bind to kernel 1 '_Z6KernelP4NodePiPbS2_S1_S2_i'
GPGPU-Sim uArch: core: 11, cta: 0 initialized @(1,0)
GPGPU-Sim uArch: Shader 12 bind to kernel 1 '_Z6KernelP4NodePiPbS2_S1_S2_i'
GPGPU-Sim uArch: core: 12, cta: 0 initialized @(1,0)
GPGPU-Sim uArch: Shader 13 bind to kernel 1 '_Z6KernelP4NodePiPbS2_S1_S2_i'
GPGPU-Sim uArch: core: 13, cta: 0 initialized @(1,0)
GPGPU-Sim uArch: Shader 14 bind to kernel 1 '_Z6KernelP4NodePiPbS2_S1_S2_i'
GPGPU-Sim uArch: core: 14, cta: 0 initialized @(1,0)
GPGPU-Sim uArch: Shader 0 bind to kernel 1 '_Z6KernelP4NodePiPbS2_S1_S2_i'
GPGPU-Sim uArch: core:  0, cta: 0 initialized @(1,0)
GPGPU-Sim uArch: core:  1, cta: 1 initialized @(2,0)
GPGPU-Sim uArch: core:  2, cta: 1 initialized @(2,0)
GPGPU-Sim uArch: core:  3, cta: 1 initialized @(2,0)
GPGPU-Sim uArch: core:  4, cta: 1 initialized @(2,0)
GPGPU-Sim uArch: core:  5, cta: 1 initialized @(2,0)
GPGPU-Sim uArch: core:  6, cta: 1 initialized @(2,0)
GPGPU-Sim uArch: core:  7, cta: 1 initialized @(2,0)
GPGPU-Sim uArch: core:  8, cta: 1 initialized @(2,0)
GPGPU-Sim uArch: core:  9, cta: 1 initialized @(2,0)
GPGPU-Sim uArch: core: 10, cta: 1 initialized @(2,0)
GPGPU-Sim uArch: core: 11, cta: 1 initialized @(2,0)
GPGPU-Sim uArch: core: 12, cta: 1 initialized @(2,0)
GPGPU-Sim uArch: core: 13, cta: 1 initialized @(2,0)
GPGPU-Sim uArch: core: 14, cta: 1 initialized @(2,0)
GPGPU-Sim uArch: core:  0, cta: 1 initialized @(2,0)
GPGPU-Sim uArch: core:  1, cta: 2 initialized @(3,0)
GPGPU-Sim uArch: core:  2, cta: 2 initialized @(3,0)
GPGPU-Sim uArch: core:  3, cta: 2 initialized @(3,0)
GPGPU-Sim uArch: core:  4, cta: 2 initialized @(3,0)
GPGPU-Sim uArch: core:  5, cta: 2 initialized @(3,0)
GPGPU-Sim uArch: core:  6, cta: 2 initialized @(3,0)
GPGPU-Sim uArch: core:  7, cta: 2 initialized @(3,0)
GPGPU-Sim uArch: core:  8, cta: 2 initialized @(3,0)
GPGPU-Sim uArch: core:  9, cta: 2 initialized @(3,0)
GPGPU-Sim uArch: core: 10, cta: 2 initialized @(3,0)
GPGPU-Sim uArch: core: 11, cta: 2 initialized @(3,0)
GPGPU-Sim uArch: core: 12, cta: 2 initialized @(3,0)
GPGPU-Sim uArch: core: 13, cta: 2 initialized @(3,0)
GPGPU-Sim uArch: core: 14, cta: 2 initialized @(3,0)
GPGPU-Sim uArch: core:  0, cta: 2 initialized @(3,0)
GPGPU-Sim uArch: core:  1, cta: 3 initialized @(4,0)
GPGPU-Sim uArch: core:  2, cta: 3 initialized @(4,0)
GPGPU-Sim uArch: core:  3, cta: 3 initialized @(4,0)
GPGPU-Sim uArch: core:  4, cta: 3 initialized @(4,0)
GPGPU-Sim uArch: core:  5, cta: 3 initialized @(4,0)
GPGPU-Sim uArch: core:  6, cta: 3 initialized @(4,0)
GPGPU-Sim uArch: core:  7, cta: 3 initialized @(4,0)
GPGPU-Sim uArch: core:  8, cta: 3 initialized @(4,0)
GPGPU-Sim uArch: core:  9, cta: 3 initialized @(4,0)
GPGPU-Sim uArch: core: 10, cta: 3 initialized @(4,0)
GPGPU-Sim uArch: core: 11, cta: 3 initialized @(4,0)
GPGPU-Sim uArch: core: 12, cta: 3 initialized @(4,0)
GPGPU-Sim uArch: core: 13, cta: 3 initialized @(4,0)
GPGPU-Sim uArch: core: 14, cta: 3 initialized @(4,0)
GPGPU-Sim uArch: core:  0, cta: 3 initialized @(4,0)
GPGPU-Sim uArch: core:  1, cta: 4 initialized @(5,0)
GPGPU-Sim uArch: core:  2, cta: 4 initialized @(5,0)
GPGPU-Sim uArch: core:  3, cta: 4 initialized @(5,0)
GPGPU-Sim uArch: core:  4, cta: 4 initialized @(5,0)
GPGPU-Sim uArch: core:  5, cta: 4 initialized @(5,0)
GPGPU-Sim uArch: core:  6, cta: 4 initialized @(5,0)
GPGPU-Sim uArch: core:  7, cta: 4 initialized @(5,0)
GPGPU-Sim uArch: core:  8, cta: 4 initialized @(5,0)
GPGPU-Sim uArch: core:  9, cta: 4 initialized @(5,0)
GPGPU-Sim uArch: core: 10, cta: 4 initialized @(5,0)
GPGPU-Sim uArch: core: 11, cta: 4 initialized @(5,0)
GPGPU-Sim uArch: core: 12, cta: 4 initialized @(5,0)
GPGPU-Sim uArch: core: 13, cta: 4 initialized @(5,0)
GPGPU-Sim uArch: core: 14, cta: 4 initialized @(5,0)
GPGPU-Sim uArch: core:  0, cta: 4 initialized @(5,0)
GPGPU-Sim uArch: core:  1, cta: 5 initialized @(6,0)
GPGPU-Sim uArch: core:  2, cta: 5 initialized @(6,0)
GPGPU-Sim uArch: core:  3, cta: 5 initialized @(6,0)
GPGPU-Sim uArch: core:  4, cta: 5 initialized @(6,0)
GPGPU-Sim uArch: core:  5, cta: 5 initialized @(6,0)
GPGPU-Sim uArch: core:  6, cta: 5 initialized @(6,0)
GPGPU-Sim uArch: core:  7, cta: 5 initialized @(6,0)
GPGPU-Sim uArch: core:  8, cta: 5 initialized @(6,0)
GPGPU-Sim uArch: core:  9, cta: 5 initialized @(6,0)
GPGPU-Sim uArch: core: 10, cta: 5 initialized @(6,0)
GPGPU-Sim uArch: core: 11, cta: 5 initialized @(6,0)
GPGPU-Sim uArch: core: 12, cta: 5 initialized @(6,0)
GPGPU-Sim uArch: core: 13, cta: 5 initialized @(6,0)
GPGPU-Sim uArch: core: 14, cta: 5 initialized @(6,0)
GPGPU-Sim uArch: core:  0, cta: 5 initialized @(6,0)
GPGPU-Sim PTX: 100000 instructions simulated : ctaid=(7,0,0) tid=(31,0,0)
GPGPU-Sim uArch: cycles simulated: 500  inst.: 92160 (ipc=184.3) sim_rate=92160 (inst/sec) elapsed = 0:0:00:01 / Wed Mar  2 01:15:38 2016
GPGPU-Sim PTX: 200000 instructions simulated : ctaid=(26,0,0) tid=(255,0,0)
GPGPU-Sim PTX: 300000 instructions simulated : ctaid=(34,0,0) tid=(253,0,0)
GPGPU-Sim uArch: Shader 1 finished CTA #1 (1243,0), 5 CTAs running
GPGPU-Sim uArch: core:  1, cta: 1 initialized @(1244,0)
GPGPU-Sim uArch: Shader 3 finished CTA #0 (1262,0), 5 CTAs running
GPGPU-Sim uArch: Shader 3 finished CTA #1 (1262,0), 4 CTAs running
GPGPU-Sim uArch: Shader 3 finished CTA #2 (1262,0), 3 CTAs running
GPGPU-Sim uArch: Shader 3 finished CTA #3 (1262,0), 2 CTAs running
GPGPU-Sim uArch: core:  3, cta: 0 initialized @(1263,0)
GPGPU-Sim uArch: Shader 4 finished CTA #0 (1263,0), 5 CTAs running
GPGPU-Sim uArch: Shader 4 finished CTA #1 (1263,0), 4 CTAs running
GPGPU-Sim uArch: Shader 4 finished CTA #2 (1263,0), 3 CTAs running
GPGPU-Sim uArch: core:  4, cta: 0 initialized @(1264,0)
GPGPU-Sim uArch: core:  3, cta: 1 initialized @(1264,0)
GPGPU-Sim uArch: core:  4, cta: 1 initialized @(1265,0)
GPGPU-Sim uArch: core:  3, cta: 2 initialized @(1265,0)
GPGPU-Sim uArch: Shader 0 finished CTA #0 (1265,0), 5 CTAs running
GPGPU-Sim uArch: Shader 0 finished CTA #1 (1265,0), 4 CTAs running
GPGPU-Sim uArch: Shader 0 finished CTA #2 (1265,0), 3 CTAs running
GPGPU-Sim uArch: core:  4, cta: 2 initialized @(1266,0)
GPGPU-Sim uArch: core:  0, cta: 0 initialized @(1266,0)
GPGPU-Sim uArch: core:  3, cta: 3 initialized @(1266,0)
GPGPU-Sim uArch: core:  0, cta: 1 initialized @(1267,0)
GPGPU-Sim uArch: Shader 1 finished CTA #2 (1267,0), 5 CTAs running
GPGPU-Sim uArch: Shader 1 finished CTA #3 (1267,0), 4 CTAs running
GPGPU-Sim uArch: Shader 1 finished CTA #4 (1267,0), 3 CTAs running
GPGPU-Sim uArch: Shader 1 finished CTA #5 (1267,0), 2 CTAs running
GPGPU-Sim uArch: core:  1, cta: 2 initialized @(1268,0)
GPGPU-Sim uArch: core:  0, cta: 2 initialized @(1268,0)
GPGPU-Sim uArch: core:  1, cta: 3 initialized @(1269,0)
GPGPU-Sim uArch: core:  1, cta: 4 initialized @(1270,0)
GPGPU-Sim uArch: core:  1, cta: 5 initialized @(1271,0)
GPGPU-Sim uArch: Shader 2 finished CTA #0 (1279,0), 5 CTAs running
GPGPU-Sim uArch: Shader 2 finished CTA #1 (1279,0), 4 CTAs running
GPGPU-Sim uArch: Shader 2 finished CTA #2 (1279,0), 3 CTAs running
GPGPU-Sim uArch: Shader 2 finished CTA #3 (1279,0), 2 CTAs running
GPGPU-Sim uArch: core:  2, cta: 0 initialized @(1280,0)
GPGPU-Sim uArch: Shader 5 finished CTA #0 (1280,0), 5 CTAs running
GPGPU-Sim uArch: Shader 5 finished CTA #1 (1280,0), 4 CTAs running
GPGPU-Sim uArch: Shader 5 finished CTA #2 (1280,0), 3 CTAs running
GPGPU-Sim uArch: Shader 5 finished CTA #3 (1280,0), 2 CTAs running
GPGPU-Sim uArch: core:  5, cta: 0 initialized @(1281,0)
GPGPU-Sim uArch: core:  2, cta: 1 initialized @(1281,0)
GPGPU-Sim uArch: core:  5, cta: 1 initialized @(1282,0)
GPGPU-Sim uArch: core:  2, cta: 2 initialized @(1282,0)
GPGPU-Sim uArch: core:  5, cta: 2 initialized @(1283,0)
GPGPU-Sim uArch: core:  2, cta: 3 initialized @(1283,0)
GPGPU-Sim uArch: core:  5, cta: 3 initialized @(1284,0)
GPGPU-Sim uArch: Shader 6 finished CTA #0 (1285,0), 5 CTAs running
GPGPU-Sim uArch: Shader 6 finished CTA #1 (1285,0), 4 CTAs running
GPGPU-Sim uArch: Shader 6 finished CTA #2 (1285,0), 3 CTAs running
GPGPU-Sim uArch: Shader 6 finished CTA #3 (1285,0), 2 CTAs running
GPGPU-Sim uArch: core:  6, cta: 0 initialized @(1286,0)
GPGPU-Sim uArch: Shader 7 finished CTA #0 (1286,0), 5 CTAs running
GPGPU-Sim uArch: Shader 7 finished CTA #1 (1286,0), 4 CTAs running
GPGPU-Sim uArch: Shader 7 finished CTA #2 (1286,0), 3 CTAs running
GPGPU-Sim uArch: core:  7, cta: 0 initialized @(1287,0)
GPGPU-Sim uArch: core:  6, cta: 1 initialized @(1287,0)
GPGPU-Sim uArch: core:  7, cta: 1 initialized @(1288,0)
GPGPU-Sim uArch: core:  6, cta: 2 initialized @(1288,0)
GPGPU-Sim uArch: core:  7, cta: 2 initialized @(1289,0)
GPGPU-Sim uArch: core:  6, cta: 3 initialized @(1289,0)
GPGPU-Sim uArch: Shader 0 finished CTA #3 (1294,0), 5 CTAs running
GPGPU-Sim uArch: Shader 0 finished CTA #4 (1294,0), 4 CTAs running
GPGPU-Sim uArch: Shader 0 finished CTA #5 (1294,0), 3 CTAs running
GPGPU-Sim uArch: core:  0, cta: 3 initialized @(1295,0)
GPGPU-Sim uArch: core:  0, cta: 4 initialized @(1296,0)
GPGPU-Sim uArch: Shader 3 finished CTA #4 (1296,0), 5 CTAs running
GPGPU-Sim uArch: Shader 3 finished CTA #5 (1296,0), 4 CTAs running
GPGPU-Sim uArch: core:  3, cta: 4 initialized @(1297,0)
GPGPU-Sim uArch: core:  0, cta: 5 initialized @(1297,0)
GPGPU-Sim uArch: Shader 9 finished CTA #0 (1297,0), 5 CTAs running
GPGPU-Sim uArch: Shader 9 finished CTA #1 (1297,0), 4 CTAs running
GPGPU-Sim uArch: core:  3, cta: 5 initialized @(1298,0)
GPGPU-Sim uArch: core:  9, cta: 0 initialized @(1298,0)
GPGPU-Sim uArch: core:  9, cta: 1 initialized @(1299,0)
GPGPU-Sim uArch: Shader 4 finished CTA #3 (1300,0), 5 CTAs running
GPGPU-Sim uArch: Shader 4 finished CTA #4 (1300,0), 4 CTAs running
GPGPU-Sim uArch: Shader 4 finished CTA #5 (1300,0), 3 CTAs running
GPGPU-Sim uArch: core:  4, cta: 3 initialized @(1301,0)
GPGPU-Sim uArch: Shader 8 finished CTA #0 (1301,0), 5 CTAs running
GPGPU-Sim uArch: Shader 8 finished CTA #1 (1301,0), 4 CTAs running
GPGPU-Sim uArch: Shader 8 finished CTA #2 (1301,0), 3 CTAs running
GPGPU-Sim uArch: Shader 8 finished CTA #3 (1301,0), 2 CTAs running
GPGPU-Sim uArch: core:  8, cta: 0 initialized @(1302,0)
GPGPU-Sim uArch: core:  4, cta: 4 initialized @(1302,0)
GPGPU-Sim uArch: core:  8, cta: 1 initialized @(1303,0)
GPGPU-Sim uArch: core:  4, cta: 5 initialized @(1303,0)
GPGPU-Sim uArch: core:  8, cta: 2 initialized @(1304,0)
GPGPU-Sim uArch: core:  8, cta: 3 initialized @(1305,0)
GPGPU-Sim uArch: Shader 11 finished CTA #0 (1307,0), 5 CTAs running
GPGPU-Sim uArch: Shader 11 finished CTA #1 (1307,0), 4 CTAs running
GPGPU-Sim uArch: Shader 11 finished CTA #2 (1307,0), 3 CTAs running
GPGPU-Sim uArch: core: 11, cta: 0 initialized @(1308,0)
GPGPU-Sim uArch: core: 11, cta: 1 initialized @(1309,0)
GPGPU-Sim uArch: core: 11, cta: 2 initialized @(1310,0)
GPGPU-Sim uArch: Shader 13 finished CTA #0 (1310,0), 5 CTAs running
GPGPU-Sim uArch: Shader 13 finished CTA #1 (1310,0), 4 CTAs running
GPGPU-Sim uArch: core: 13, cta: 0 initialized @(1311,0)
GPGPU-Sim uArch: core: 13, cta: 1 initialized @(1312,0)
GPGPU-Sim uArch: Shader 5 finished CTA #4 (1314,0), 5 CTAs running
GPGPU-Sim uArch: Shader 5 finished CTA #5 (1314,0), 4 CTAs running
GPGPU-Sim uArch: Shader 13 finished CTA #3 (1314,0), 5 CTAs running
GPGPU-Sim uArch: core:  5, cta: 4 initialized @(1315,0)
GPGPU-Sim uArch: core: 13, cta: 3 initialized @(1315,0)
GPGPU-Sim uArch: core:  5, cta: 5 initialized @(1316,0)
GPGPU-Sim uArch: Shader 2 finished CTA #4 (1320,0), 5 CTAs running
GPGPU-Sim uArch: Shader 2 finished CTA #5 (1320,0), 4 CTAs running
GPGPU-Sim uArch: core:  2, cta: 4 initialized @(1321,0)
GPGPU-Sim uArch: core:  2, cta: 5 initialized @(1322,0)
GPGPU-Sim uArch: Shader 7 finished CTA #3 (1324,0), 5 CTAs running
GPGPU-Sim uArch: Shader 7 finished CTA #4 (1324,0), 4 CTAs running
GPGPU-Sim uArch: Shader 7 finished CTA #5 (1324,0), 3 CTAs running
GPGPU-Sim uArch: core:  7, cta: 3 initialized @(1325,0)
GPGPU-Sim uArch: core:  7, cta: 4 initialized @(1326,0)
GPGPU-Sim uArch: Shader 6 finished CTA #4 (1326,0), 5 CTAs running
GPGPU-Sim uArch: Shader 6 finished CTA #5 (1326,0), 4 CTAs running
GPGPU-Sim uArch: core:  6, cta: 4 initialized @(1327,0)
GPGPU-Sim uArch: core:  7, cta: 5 initialized @(1327,0)
GPGPU-Sim uArch: core:  6, cta: 5 initialized @(1328,0)
GPGPU-Sim uArch: Shader 9 finished CTA #2 (1328,0), 5 CTAs running
GPGPU-Sim uArch: Shader 9 finished CTA #3 (1328,0), 4 CTAs running
GPGPU-Sim uArch: Shader 9 finished CTA #4 (1328,0), 3 CTAs running
GPGPU-Sim uArch: Shader 9 finished CTA #5 (1328,0), 2 CTAs running
GPGPU-Sim uArch: core:  9, cta: 2 initialized @(1329,0)
GPGPU-Sim uArch: Shader 14 finished CTA #0 (1329,0), 5 CTAs running
GPGPU-Sim uArch: Shader 14 finished CTA #1 (1329,0), 4 CTAs running
GPGPU-Sim uArch: Shader 14 finished CTA #2 (1329,0), 3 CTAs running
GPGPU-Sim uArch: Shader 14 finished CTA #3 (1329,0), 2 CTAs running
GPGPU-Sim uArch: core: 14, cta: 0 initialized @(1330,0)
GPGPU-Sim uArch: core:  9, cta: 3 initialized @(1330,0)
GPGPU-Sim uArch: core: 14, cta: 1 initialized @(1331,0)
GPGPU-Sim uArch: core:  9, cta: 4 initialized @(1331,0)
GPGPU-Sim uArch: core: 14, cta: 2 initialized @(1332,0)
GPGPU-Sim uArch: core:  9, cta: 5 initialized @(1332,0)
GPGPU-Sim uArch: core: 14, cta: 3 initialized @(1333,0)
GPGPU-Sim uArch: Shader 10 finished CTA #0 (1333,0), 5 CTAs running
GPGPU-Sim uArch: Shader 10 finished CTA #1 (1333,0), 4 CTAs running
GPGPU-Sim uArch: Shader 10 finished CTA #2 (1333,0), 3 CTAs running
GPGPU-Sim uArch: Shader 10 finished CTA #3 (1333,0), 2 CTAs running
GPGPU-Sim uArch: Shader 12 finished CTA #0 (1333,0), 5 CTAs running
GPGPU-Sim uArch: Shader 12 finished CTA #1 (1333,0), 4 CTAs running
GPGPU-Sim uArch: Shader 12 finished CTA #2 (1333,0), 3 CTAs running
GPGPU-Sim uArch: Shader 12 finished CTA #3 (1333,0), 2 CTAs running
GPGPU-Sim uArch: core: 10, cta: 0 initialized @(1334,0)
GPGPU-Sim uArch: core: 12, cta: 0 initialized @(1334,0)
GPGPU-Sim uArch: core: 10, cta: 1 initialized @(1335,0)
GPGPU-Sim uArch: core: 12, cta: 1 initialized @(1335,0)
GPGPU-Sim uArch: core: 10, cta: 2 initialized @(1336,0)
GPGPU-Sim uArch: core: 12, cta: 2 initialized @(1336,0)
GPGPU-Sim uArch: core: 10, cta: 3 initialized @(1337,0)
GPGPU-Sim uArch: core: 12, cta: 3 initialized @(1337,0)
GPGPU-Sim uArch: Shader 8 finished CTA #4 (1338,0), 5 CTAs running
GPGPU-Sim uArch: Shader 8 finished CTA #5 (1338,0), 4 CTAs running
GPGPU-Sim uArch: core:  8, cta: 4 initialized @(1339,0)
GPGPU-Sim uArch: core:  8, cta: 5 initialized @(1340,0)
GPGPU-Sim uArch: Shader 13 finished CTA #2 (1340,0), 5 CTAs running
GPGPU-Sim uArch: core: 13, cta: 2 initialized @(1341,0)
GPGPU-Sim uArch: Shader 11 finished CTA #3 (1342,0), 5 CTAs running
GPGPU-Sim uArch: Shader 11 finished CTA #4 (1342,0), 4 CTAs running
GPGPU-Sim uArch: Shader 11 finished CTA #5 (1342,0), 3 CTAs running
GPGPU-Sim uArch: core: 11, cta: 3 initialized @(1343,0)
GPGPU-Sim uArch: core: 11, cta: 4 initialized @(1344,0)
GPGPU-Sim uArch: core: 11, cta: 5 initialized @(1345,0)
GPGPU-Sim uArch: Shader 13 finished CTA #4 (1348,0), 5 CTAs running
GPGPU-Sim uArch: Shader 13 finished CTA #5 (1348,0), 4 CTAs running
GPGPU-Sim uArch: core: 13, cta: 4 initialized @(1349,0)
GPGPU-Sim uArch: core: 13, cta: 5 initialized @(1350,0)
GPGPU-Sim uArch: Shader 14 finished CTA #4 (1362,0), 5 CTAs running
GPGPU-Sim uArch: Shader 14 finished CTA #5 (1362,0), 4 CTAs running
GPGPU-Sim uArch: core: 14, cta: 4 initialized @(1363,0)
GPGPU-Sim uArch: core: 14, cta: 5 initialized @(1364,0)
GPGPU-Sim PTX: 400000 instructions simulated : ctaid=(142,0,0) tid=(117,0,0)
GPGPU-Sim uArch: Shader 10 finished CTA #4 (1368,0), 5 CTAs running
GPGPU-Sim uArch: Shader 10 finished CTA #5 (1368,0), 4 CTAs running
GPGPU-Sim uArch: core: 10, cta: 4 initialized @(1369,0)
GPGPU-Sim uArch: core: 10, cta: 5 initialized @(1370,0)
GPGPU-Sim uArch: Shader 12 finished CTA #4 (1374,0), 5 CTAs running
GPGPU-Sim uArch: Shader 12 finished CTA #5 (1374,0), 4 CTAs running
GPGPU-Sim uArch: core: 12, cta: 4 initialized @(1375,0)
GPGPU-Sim uArch: core: 12, cta: 5 initialized @(1376,0)
GPGPU-Sim PTX: 500000 instructions simulated : ctaid=(106,0,0) tid=(213,0,0)
GPGPU-Sim uArch: cycles simulated: 1500  inst.: 472936 (ipc=315.3) sim_rate=236468 (inst/sec) elapsed = 0:0:00:02 / Wed Mar  2 01:15:39 2016
GPGPU-Sim PTX: 600000 instructions simulated : ctaid=(165,0,0) tid=(181,0,0)
GPGPU-Sim uArch: Shader 1 finished CTA #1 (1734,0), 5 CTAs running
GPGPU-Sim uArch: core:  1, cta: 1 initialized @(1735,0)
GPGPU-Sim uArch: Shader 3 finished CTA #0 (1752,0), 5 CTAs running
GPGPU-Sim uArch: core:  3, cta: 0 initialized @(1753,0)
GPGPU-Sim uArch: Shader 1 finished CTA #2 (1754,0), 5 CTAs running
GPGPU-Sim uArch: core:  1, cta: 2 initialized @(1755,0)
GPGPU-Sim uArch: Shader 0 finished CTA #0 (1759,0), 5 CTAs running
GPGPU-Sim uArch: core:  0, cta: 0 initialized @(1760,0)
GPGPU-Sim uArch: Shader 4 finished CTA #0 (1763,0), 5 CTAs running
GPGPU-Sim uArch: core:  4, cta: 0 initialized @(1764,0)
GPGPU-Sim uArch: Shader 1 finished CTA #3 (1776,0), 5 CTAs running
GPGPU-Sim uArch: core:  1, cta: 3 initialized @(1777,0)
GPGPU-Sim uArch: Shader 5 finished CTA #0 (1784,0), 5 CTAs running
GPGPU-Sim uArch: Shader 5 finished CTA #1 (1784,0), 4 CTAs running
GPGPU-Sim uArch: core:  5, cta: 0 initialized @(1785,0)
GPGPU-Sim uArch: core:  5, cta: 1 initialized @(1786,0)
GPGPU-Sim uArch: Shader 0 finished CTA #1 (1793,0), 5 CTAs running
GPGPU-Sim uArch: core:  0, cta: 1 initialized @(1794,0)
GPGPU-Sim uArch: Shader 4 finished CTA #1 (1796,0), 5 CTAs running
GPGPU-Sim uArch: core:  4, cta: 1 initialized @(1797,0)
GPGPU-Sim uArch: Shader 0 finished CTA #2 (1809,0), 5 CTAs running
GPGPU-Sim uArch: Shader 7 finished CTA #0 (1809,0), 5 CTAs running
GPGPU-Sim uArch: core:  7, cta: 0 initialized @(1810,0)
GPGPU-Sim uArch: core:  0, cta: 2 initialized @(1810,0)
GPGPU-Sim uArch: Shader 2 finished CTA #0 (1811,0), 5 CTAs running
GPGPU-Sim uArch: core:  2, cta: 0 initialized @(1812,0)
GPGPU-Sim uArch: Shader 3 finished CTA #1 (1812,0), 5 CTAs running
GPGPU-Sim uArch: Shader 3 finished CTA #2 (1812,0), 4 CTAs running
GPGPU-Sim uArch: Shader 3 finished CTA #3 (1812,0), 3 CTAs running
GPGPU-Sim uArch: Shader 4 finished CTA #2 (1812,0), 5 CTAs running
GPGPU-Sim uArch: core:  3, cta: 1 initialized @(1813,0)
GPGPU-Sim uArch: core:  4, cta: 2 initialized @(1813,0)
GPGPU-Sim uArch: Shader 6 finished CTA #1 (1813,0), 5 CTAs running
GPGPU-Sim uArch: core:  6, cta: 1 initialized @(1814,0)
GPGPU-Sim uArch: core:  3, cta: 2 initialized @(1814,0)
GPGPU-Sim uArch: core:  3, cta: 3 initialized @(1815,0)
GPGPU-Sim uArch: Shader 7 finished CTA #1 (1825,0), 5 CTAs running
GPGPU-Sim uArch: Shader 7 finished CTA #2 (1825,0), 4 CTAs running
GPGPU-Sim uArch: core:  7, cta: 1 initialized @(1826,0)
GPGPU-Sim uArch: Shader 9 finished CTA #1 (1826,0), 5 CTAs running
GPGPU-Sim uArch: core:  9, cta: 1 initialized @(1827,0)
GPGPU-Sim uArch: core:  7, cta: 2 initialized @(1827,0)
GPGPU-Sim uArch: Shader 6 finished CTA #0 (1828,0), 5 CTAs running
GPGPU-Sim uArch: Shader 13 finished CTA #0 (1828,0), 5 CTAs running
GPGPU-Sim uArch: core: 13, cta: 0 initialized @(1829,0)
GPGPU-Sim uArch: core:  6, cta: 0 initialized @(1829,0)
GPGPU-Sim uArch: Shader 2 finished CTA #1 (1832,0), 5 CTAs running
GPGPU-Sim uArch: Shader 2 finished CTA #2 (1832,0), 4 CTAs running
GPGPU-Sim uArch: Shader 2 finished CTA #3 (1832,0), 3 CTAs running
GPGPU-Sim uArch: core:  2, cta: 1 initialized @(1833,0)
GPGPU-Sim uArch: core:  2, cta: 2 initialized @(1834,0)
GPGPU-Sim uArch: core:  2, cta: 3 initialized @(1835,0)
GPGPU-Sim uArch: Shader 11 finished CTA #0 (1836,0), 5 CTAs running
GPGPU-Sim uArch: core: 11, cta: 0 initialized @(1837,0)
GPGPU-Sim uArch: Shader 5 finished CTA #2 (1840,0), 5 CTAs running
GPGPU-Sim uArch: Shader 5 finished CTA #3 (1840,0), 4 CTAs running
GPGPU-Sim uArch: core:  5, cta: 2 initialized @(1841,0)
GPGPU-Sim uArch: core:  5, cta: 3 initialized @(1842,0)
GPGPU-Sim uArch: Shader 9 finished CTA #0 (1843,0), 5 CTAs running
GPGPU-Sim uArch: core:  9, cta: 0 initialized @(1844,0)
GPGPU-Sim uArch: Shader 1 finished CTA #4 (1846,0), 5 CTAs running
GPGPU-Sim uArch: Shader 12 finished CTA #1 (1846,0), 5 CTAs running
GPGPU-Sim uArch: core: 12, cta: 1 initialized @(1847,0)
GPGPU-Sim uArch: core:  1, cta: 4 initialized @(1847,0)
GPGPU-Sim uArch: Shader 11 finished CTA #1 (1849,0), 5 CTAs running
GPGPU-Sim uArch: Shader 11 finished CTA #2 (1849,0), 4 CTAs running
GPGPU-Sim uArch: core: 11, cta: 1 initialized @(1850,0)
GPGPU-Sim uArch: Shader 10 finished CTA #2 (1850,0), 5 CTAs running
GPGPU-Sim uArch: core: 10, cta: 2 initialized @(1851,0)
GPGPU-Sim uArch: core: 11, cta: 2 initialized @(1851,0)
GPGPU-Sim uArch: Shader 8 finished CTA #0 (1851,0), 5 CTAs running
GPGPU-Sim uArch: core:  8, cta: 0 initialized @(1852,0)
GPGPU-Sim uArch: Shader 6 finished CTA #2 (1858,0), 5 CTAs running
GPGPU-Sim uArch: Shader 6 finished CTA #3 (1858,0), 4 CTAs running
GPGPU-Sim uArch: core:  6, cta: 2 initialized @(1859,0)
GPGPU-Sim uArch: core:  6, cta: 3 initialized @(1860,0)
GPGPU-Sim uArch: Shader 0 finished CTA #3 (1872,0), 5 CTAs running
GPGPU-Sim uArch: core:  0, cta: 3 initialized @(1873,0)
GPGPU-Sim uArch: Shader 9 finished CTA #2 (1873,0), 5 CTAs running
GPGPU-Sim uArch: core:  9, cta: 2 initialized @(1874,0)
GPGPU-Sim uArch: Shader 12 finished CTA #0 (1874,0), 5 CTAs running
GPGPU-Sim uArch: core: 12, cta: 0 initialized @(1875,0)
GPGPU-Sim PTX: 700000 instructions simulated : ctaid=(196,0,0) tid=(237,0,0)
GPGPU-Sim uArch: Shader 4 finished CTA #3 (1875,0), 5 CTAs running
GPGPU-Sim uArch: Shader 8 finished CTA #1 (1875,0), 5 CTAs running
GPGPU-Sim uArch: Shader 8 finished CTA #2 (1875,0), 4 CTAs running
GPGPU-Sim uArch: Shader 8 finished CTA #3 (1875,0), 3 CTAs running
GPGPU-Sim uArch: core:  4, cta: 3 initialized @(1876,0)
GPGPU-Sim uArch: core:  8, cta: 1 initialized @(1876,0)
GPGPU-Sim uArch: core:  8, cta: 2 initialized @(1877,0)
GPGPU-Sim uArch: core:  8, cta: 3 initialized @(1878,0)
GPGPU-Sim uArch: Shader 10 finished CTA #1 (1882,0), 5 CTAs running
GPGPU-Sim uArch: core: 10, cta: 1 initialized @(1883,0)
GPGPU-Sim uArch: Shader 14 finished CTA #0 (1883,0), 5 CTAs running
GPGPU-Sim uArch: core: 14, cta: 0 initialized @(1884,0)
GPGPU-Sim uArch: Shader 13 finished CTA #1 (1903,0), 5 CTAs running
GPGPU-Sim uArch: core: 13, cta: 1 initialized @(1904,0)
GPGPU-Sim uArch: Shader 14 finished CTA #1 (1911,0), 5 CTAs running
GPGPU-Sim uArch: Shader 14 finished CTA #2 (1911,0), 4 CTAs running
GPGPU-Sim uArch: Shader 14 finished CTA #3 (1911,0), 3 CTAs running
GPGPU-Sim uArch: core: 14, cta: 1 initialized @(1912,0)
GPGPU-Sim uArch: core: 14, cta: 2 initialized @(1913,0)
GPGPU-Sim uArch: core: 14, cta: 3 initialized @(1914,0)
GPGPU-Sim uArch: Shader 10 finished CTA #3 (1918,0), 5 CTAs running
GPGPU-Sim uArch: core: 10, cta: 3 initialized @(1919,0)
GPGPU-Sim uArch: Shader 1 finished CTA #5 (1926,0), 5 CTAs running
GPGPU-Sim uArch: Shader 10 finished CTA #0 (1926,0), 5 CTAs running
GPGPU-Sim uArch: core:  1, cta: 5 initialized @(1927,0)
GPGPU-Sim uArch: core: 10, cta: 0 initialized @(1927,0)
GPGPU-Sim uArch: Shader 3 finished CTA #4 (1932,0), 5 CTAs running
GPGPU-Sim uArch: core:  3, cta: 4 initialized @(1933,0)
GPGPU-Sim uArch: Shader 13 finished CTA #2 (1939,0), 5 CTAs running
GPGPU-Sim uArch: Shader 13 finished CTA #3 (1939,0), 4 CTAs running
GPGPU-Sim uArch: core: 13, cta: 2 initialized @(1940,0)
GPGPU-Sim uArch: core: 13, cta: 3 initialized @(1941,0)
GPGPU-Sim uArch: Shader 12 finished CTA #2 (1941,0), 5 CTAs running
GPGPU-Sim uArch: core: 12, cta: 2 initialized @(1942,0)
GPGPU-Sim uArch: Shader 14 finished CTA #4 (1943,0), 5 CTAs running
GPGPU-Sim uArch: core: 14, cta: 4 initialized @(1944,0)
GPGPU-Sim uArch: Shader 0 finished CTA #5 (1951,0), 5 CTAs running
GPGPU-Sim uArch: core:  0, cta: 5 initialized @(1952,0)
GPGPU-Sim uArch: Shader 9 finished CTA #3 (1952,0), 5 CTAs running
GPGPU-Sim uArch: core:  9, cta: 3 initialized @(1953,0)
GPGPU-Sim uArch: Shader 2 finished CTA #4 (1962,0), 5 CTAs running
GPGPU-Sim uArch: core:  2, cta: 4 initialized @(1963,0)
GPGPU-Sim uArch: Shader 4 finished CTA #4 (1965,0), 5 CTAs running
GPGPU-Sim uArch: Shader 4 finished CTA #5 (1965,0), 4 CTAs running
GPGPU-Sim uArch: core:  4, cta: 4 initialized @(1966,0)
GPGPU-Sim uArch: Shader 7 finished CTA #3 (1966,0), 5 CTAs running
GPGPU-Sim uArch: Shader 7 finished CTA #4 (1966,0), 4 CTAs running
GPGPU-Sim uArch: core:  7, cta: 3 initialized @(1967,0)
GPGPU-Sim uArch: core:  4, cta: 5 initialized @(1967,0)
GPGPU-Sim uArch: core:  7, cta: 4 initialized @(1968,0)
GPGPU-Sim uArch: Shader 5 finished CTA #4 (1976,0), 5 CTAs running
GPGPU-Sim uArch: core:  5, cta: 4 initialized @(1977,0)
GPGPU-Sim uArch: Shader 3 finished CTA #5 (1980,0), 5 CTAs running
GPGPU-Sim uArch: core:  3, cta: 5 initialized @(1981,0)
GPGPU-Sim uArch: Shader 6 finished CTA #4 (1981,0), 5 CTAs running
GPGPU-Sim uArch: core:  6, cta: 4 initialized @(1982,0)
GPGPU-Sim uArch: Shader 0 finished CTA #4 (1983,0), 5 CTAs running
GPGPU-Sim uArch: Shader 13 finished CTA #4 (1983,0), 5 CTAs running
GPGPU-Sim uArch: core: 13, cta: 4 initialized @(1984,0)
GPGPU-Sim uArch: core:  0, cta: 4 initialized @(1984,0)
GPGPU-Sim uArch: Shader 12 finished CTA #3 (1984,0), 5 CTAs running
GPGPU-Sim uArch: Shader 12 finished CTA #4 (1984,0), 4 CTAs running
GPGPU-Sim uArch: core: 12, cta: 3 initialized @(1985,0)
GPGPU-Sim uArch: core: 12, cta: 4 initialized @(1986,0)
GPGPU-Sim uArch: Shader 11 finished CTA #3 (1986,0), 5 CTAs running
GPGPU-Sim uArch: Shader 11 finished CTA #4 (1986,0), 4 CTAs running
GPGPU-Sim uArch: Shader 11 finished CTA #5 (1986,0), 3 CTAs running
GPGPU-Sim uArch: core: 11, cta: 3 initialized @(1987,0)
GPGPU-Sim uArch: core: 11, cta: 4 initialized @(1988,0)
GPGPU-Sim uArch: core: 11, cta: 5 initialized @(1989,0)
GPGPU-Sim uArch: Shader 8 finished CTA #4 (1993,0), 5 CTAs running
GPGPU-Sim uArch: Shader 10 finished CTA #4 (1993,0), 5 CTAs running
GPGPU-Sim uArch: core:  8, cta: 4 initialized @(1994,0)
GPGPU-Sim PTX: 800000 instructions simulated : ctaid=(199,0,0) tid=(75,0,0)
GPGPU-Sim uArch: Shader 9 finished CTA #4 (1996,0), 5 CTAs running
GPGPU-Sim uArch: cycles simulated: 2000  inst.: 740209 (ipc=370.1) sim_rate=246736 (inst/sec) elapsed = 0:0:00:03 / Wed Mar  2 01:15:40 2016
GPGPU-Sim uArch: Shader 2 finished CTA #5 (2001,0), 5 CTAs running
GPGPU-Sim uArch: Shader 7 finished CTA #5 (2012,0), 5 CTAs running
GPGPU-Sim uArch: Shader 5 finished CTA #5 (2020,0), 5 CTAs running
GPGPU-Sim uArch: Shader 6 finished CTA #5 (2020,0), 5 CTAs running
GPGPU-Sim uArch: Shader 13 finished CTA #5 (2027,0), 5 CTAs running
GPGPU-Sim uArch: Shader 9 finished CTA #5 (2029,0), 4 CTAs running
GPGPU-Sim uArch: Shader 8 finished CTA #5 (2031,0), 5 CTAs running
GPGPU-Sim uArch: Shader 12 finished CTA #5 (2032,0), 5 CTAs running
GPGPU-Sim uArch: Shader 10 finished CTA #5 (2033,0), 4 CTAs running
GPGPU-Sim uArch: Shader 14 finished CTA #5 (2033,0), 5 CTAs running
GPGPU-Sim PTX: 900000 instructions simulated : ctaid=(249,0,0) tid=(75,0,0)
GPGPU-Sim uArch: Shader 1 finished CTA #1 (2152,0), 5 CTAs running
GPGPU-Sim uArch: Shader 4 finished CTA #0 (2190,0), 5 CTAs running
GPGPU-Sim uArch: Shader 1 finished CTA #2 (2199,0), 4 CTAs running
GPGPU-Sim uArch: Shader 3 finished CTA #0 (2200,0), 5 CTAs running
GPGPU-Sim uArch: Shader 0 finished CTA #0 (2213,0), 5 CTAs running
GPGPU-Sim uArch: Shader 7 finished CTA #0 (2239,0), 4 CTAs running
GPGPU-Sim uArch: Shader 5 finished CTA #0 (2241,0), 4 CTAs running
GPGPU-Sim uArch: Shader 13 finished CTA #0 (2249,0), 4 CTAs running
GPGPU-Sim uArch: Shader 1 finished CTA #3 (2255,0), 3 CTAs running
GPGPU-Sim uArch: Shader 0 finished CTA #1 (2258,0), 4 CTAs running
GPGPU-Sim uArch: Shader 5 finished CTA #1 (2258,0), 3 CTAs running
GPGPU-Sim uArch: Shader 4 finished CTA #1 (2266,0), 4 CTAs running
GPGPU-Sim uArch: Shader 9 finished CTA #1 (2271,0), 3 CTAs running
GPGPU-Sim uArch: Shader 11 finished CTA #0 (2281,0), 5 CTAs running
GPGPU-Sim uArch: Shader 6 finished CTA #1 (2290,0), 4 CTAs running
GPGPU-Sim uArch: Shader 12 finished CTA #1 (2301,0), 4 CTAs running
GPGPU-Sim uArch: Shader 2 finished CTA #0 (2307,0), 4 CTAs running
GPGPU-Sim uArch: Shader 7 finished CTA #1 (2311,0), 3 CTAs running
GPGPU-Sim uArch: Shader 4 finished CTA #2 (2315,0), 3 CTAs running
GPGPU-Sim uArch: Shader 1 finished CTA #4 (2316,0), 2 CTAs running
GPGPU-Sim uArch: Shader 2 finished CTA #1 (2316,0), 3 CTAs running
GPGPU-Sim uArch: Shader 6 finished CTA #0 (2318,0), 3 CTAs running
GPGPU-Sim uArch: Shader 10 finished CTA #2 (2318,0), 3 CTAs running
GPGPU-Sim uArch: Shader 3 finished CTA #1 (2323,0), 4 CTAs running
GPGPU-Sim uArch: Shader 5 finished CTA #2 (2324,0), 2 CTAs running
GPGPU-Sim uArch: Shader 8 finished CTA #0 (2333,0), 4 CTAs running
GPGPU-Sim uArch: Shader 11 finished CTA #1 (2333,0), 4 CTAs running
GPGPU-Sim uArch: Shader 3 finished CTA #2 (2335,0), 3 CTAs running
GPGPU-Sim uArch: Shader 0 finished CTA #2 (2340,0), 3 CTAs running
GPGPU-Sim uArch: Shader 1 finished CTA #5 (2346,0), 1 CTAs running
GPGPU-Sim uArch: Shader 2 finished CTA #2 (2347,0), 2 CTAs running
GPGPU-Sim uArch: Shader 7 finished CTA #2 (2347,0), 2 CTAs running
GPGPU-Sim uArch: Shader 9 finished CTA #0 (2352,0), 2 CTAs running
GPGPU-Sim uArch: Shader 3 finished CTA #3 (2356,0), 2 CTAs running
GPGPU-Sim uArch: Shader 9 finished CTA #2 (2365,0), 1 CTAs running
GPGPU-Sim uArch: Shader 6 finished CTA #2 (2367,0), 2 CTAs running
GPGPU-Sim uArch: Shader 0 finished CTA #3 (2368,0), 2 CTAs running
GPGPU-Sim uArch: Shader 5 finished CTA #3 (2369,0), 1 CTAs running
GPGPU-Sim uArch: Shader 10 finished CTA #1 (2369,0), 2 CTAs running
GPGPU-Sim uArch: Shader 12 finished CTA #0 (2375,0), 3 CTAs running
GPGPU-Sim uArch: Shader 8 finished CTA #1 (2379,0), 3 CTAs running
GPGPU-Sim uArch: Shader 6 finished CTA #3 (2382,0), 1 CTAs running
GPGPU-Sim uArch: Shader 11 finished CTA #2 (2385,0), 3 CTAs running
GPGPU-Sim uArch: Shader 13 finished CTA #1 (2385,0), 3 CTAs running
GPGPU-Sim uArch: Shader 2 finished CTA #3 (2391,0), 1 CTAs running
GPGPU-Sim uArch: Shader 4 finished CTA #3 (2392,0), 2 CTAs running
GPGPU-Sim uArch: Shader 14 finished CTA #0 (2397,0), 4 CTAs running
GPGPU-Sim uArch: Shader 10 finished CTA #3 (2400,0), 1 CTAs running
GPGPU-Sim uArch: Shader 8 finished CTA #2 (2404,0), 2 CTAs running
GPGPU-Sim uArch: Shader 9 finished CTA #3 (2406,0), 0 CTAs running
GPGPU-Sim uArch: Shader 9 empty (release kernel 1 '_Z6KernelP4NodePiPbS2_S1_S2_i').
GPGPU-Sim uArch: Shader 8 finished CTA #3 (2408,0), 1 CTAs running
GPGPU-Sim uArch: Shader 7 finished CTA #3 (2413,0), 1 CTAs running
GPGPU-Sim uArch: Shader 10 finished CTA #0 (2413,0), 0 CTAs running
GPGPU-Sim uArch: Shader 10 empty (release kernel 1 '_Z6KernelP4NodePiPbS2_S1_S2_i').
GPGPU-Sim uArch: Shader 5 finished CTA #4 (2424,0), 0 CTAs running
GPGPU-Sim uArch: Shader 5 empty (release kernel 1 '_Z6KernelP4NodePiPbS2_S1_S2_i').
GPGPU-Sim uArch: Shader 7 finished CTA #4 (2426,0), 0 CTAs running
GPGPU-Sim uArch: Shader 7 empty (release kernel 1 '_Z6KernelP4NodePiPbS2_S1_S2_i').
GPGPU-Sim uArch: Shader 14 finished CTA #1 (2427,0), 3 CTAs running
GPGPU-Sim uArch: Shader 13 finished CTA #2 (2429,0), 2 CTAs running
GPGPU-Sim uArch: Shader 2 finished CTA #4 (2430,0), 0 CTAs running
GPGPU-Sim uArch: Shader 2 empty (release kernel 1 '_Z6KernelP4NodePiPbS2_S1_S2_i').
GPGPU-Sim uArch: Shader 3 finished CTA #4 (2433,0), 1 CTAs running
GPGPU-Sim uArch: Shader 12 finished CTA #2 (2435,0), 2 CTAs running
GPGPU-Sim uArch: Shader 0 finished CTA #5 (2436,0), 1 CTAs running
GPGPU-Sim uArch: Shader 14 finished CTA #2 (2438,0), 2 CTAs running
GPGPU-Sim uArch: Shader 14 finished CTA #3 (2442,0), 1 CTAs running
GPGPU-Sim uArch: Shader 3 finished CTA #5 (2446,0), 0 CTAs running
GPGPU-Sim uArch: Shader 3 empty (release kernel 1 '_Z6KernelP4NodePiPbS2_S1_S2_i').
GPGPU-Sim uArch: Shader 13 finished CTA #3 (2447,0), 1 CTAs running
GPGPU-Sim uArch: Shader 0 finished CTA #4 (2449,0), 0 CTAs running
GPGPU-Sim uArch: Shader 0 empty (release kernel 1 '_Z6KernelP4NodePiPbS2_S1_S2_i').
GPGPU-Sim uArch: Shader 6 finished CTA #4 (2452,0), 0 CTAs running
GPGPU-Sim uArch: Shader 6 empty (release kernel 1 '_Z6KernelP4NodePiPbS2_S1_S2_i').
GPGPU-Sim uArch: Shader 4 finished CTA #5 (2456,0), 1 CTAs running
GPGPU-Sim uArch: Shader 4 finished CTA #4 (2458,0), 0 CTAs running
GPGPU-Sim uArch: Shader 4 empty (release kernel 1 '_Z6KernelP4NodePiPbS2_S1_S2_i').
GPGPU-Sim uArch: Shader 8 finished CTA #4 (2463,0), 0 CTAs running
GPGPU-Sim uArch: Shader 8 empty (release kernel 1 '_Z6KernelP4NodePiPbS2_S1_S2_i').
GPGPU-Sim uArch: Shader 12 finished CTA #3 (2469,0), 1 CTAs running
GPGPU-Sim uArch: Shader 13 finished CTA #4 (2474,0), 0 CTAs running
GPGPU-Sim uArch: Shader 13 empty (release kernel 1 '_Z6KernelP4NodePiPbS2_S1_S2_i').
GPGPU-Sim uArch: Shader 11 finished CTA #3 (2475,0), 2 CTAs running
GPGPU-Sim uArch: Shader 12 finished CTA #4 (2482,0), 0 CTAs running
GPGPU-Sim uArch: Shader 12 empty (release kernel 1 '_Z6KernelP4NodePiPbS2_S1_S2_i').
GPGPU-Sim uArch: Shader 14 finished CTA #4 (2493,0), 0 CTAs running
GPGPU-Sim uArch: Shader 14 empty (release kernel 1 '_Z6KernelP4NodePiPbS2_S1_S2_i').
GPGPU-Sim uArch: Shader 11 finished CTA #4 (2500,0), 1 CTAs running
GPGPU-Sim uArch: Shader 11 finished CTA #5 (2504,0), 0 CTAs running
GPGPU-Sim uArch: Shader 11 empty (release kernel 1 '_Z6KernelP4NodePiPbS2_S1_S2_i').
GPGPU-Sim uArch: Shader 1 finished CTA #0 (5903,0), 0 CTAs running
GPGPU-Sim uArch: Shader 1 empty (release kernel 1 '_Z6KernelP4NodePiPbS2_S1_S2_i').
GPGPU-Sim uArch: GPU detected kernel '_Z6KernelP4NodePiPbS2_S1_S2_i' finished on shader 1.
GPGPU-Sim: synchronize waiting for inactive GPU simulation
kernel_name = _Z6KernelP4NodePiPbS2_S1_S2_i 
kernel_launch_uid = 1 
gpu_sim_cycle = 5904
gpu_sim_insn = 917736
gpu_ipc =     155.4431
gpu_tot_sim_cycle = 5904
gpu_tot_sim_insn = 917736
gpu_tot_ipc =     155.4431
gpu_tot_issued_cta = 256
gpu_stall_dramfull = 282
gpu_stall_icnt2sh    = 350
gpu_total_sim_rate=305912

========= Core cache stats =========
L1I_cache:
	L1I_total_cache_accesses = 18559
	L1I_total_cache_misses = 962
	L1I_total_cache_miss_rate = 0.0518
	L1I_total_cache_pending_hits = 0
	L1I_total_cache_reservation_fails = 6669
L1D_cache:
	L1D_cache_core[0]: Access = 144, Miss = 36, Miss_rate = 0.250, Pending_hits = 108, Reservation_fails = 0
	L1D_cache_core[1]: Access = 196, Miss = 68, Miss_rate = 0.347, Pending_hits = 96, Reservation_fails = 0
	L1D_cache_core[2]: Access = 136, Miss = 34, Miss_rate = 0.250, Pending_hits = 102, Reservation_fails = 0
	L1D_cache_core[3]: Access = 144, Miss = 36, Miss_rate = 0.250, Pending_hits = 108, Reservation_fails = 0
	L1D_cache_core[4]: Access = 144, Miss = 36, Miss_rate = 0.250, Pending_hits = 108, Reservation_fails = 0
	L1D_cache_core[5]: Access = 136, Miss = 34, Miss_rate = 0.250, Pending_hits = 102, Reservation_fails = 0
	L1D_cache_core[6]: Access = 136, Miss = 34, Miss_rate = 0.250, Pending_hits = 102, Reservation_fails = 0
	L1D_cache_core[7]: Access = 136, Miss = 34, Miss_rate = 0.250, Pending_hits = 102, Reservation_fails = 0
	L1D_cache_core[8]: Access = 136, Miss = 34, Miss_rate = 0.250, Pending_hits = 102, Reservation_fails = 0
	L1D_cache_core[9]: Access = 128, Miss = 32, Miss_rate = 0.250, Pending_hits = 96, Reservation_fails = 0
	L1D_cache_core[10]: Access = 128, Miss = 32, Miss_rate = 0.250, Pending_hits = 96, Reservation_fails = 0
	L1D_cache_core[11]: Access = 144, Miss = 36, Miss_rate = 0.250, Pending_hits = 108, Reservation_fails = 0
	L1D_cache_core[12]: Access = 136, Miss = 34, Miss_rate = 0.250, Pending_hits = 102, Reservation_fails = 0
	L1D_cache_core[13]: Access = 136, Miss = 34, Miss_rate = 0.250, Pending_hits = 102, Reservation_fails = 0
	L1D_cache_core[14]: Access = 136, Miss = 34, Miss_rate = 0.250, Pending_hits = 102, Reservation_fails = 0
	L1D_total_cache_accesses = 2116
	L1D_total_cache_misses = 548
	L1D_total_cache_miss_rate = 0.2590
	L1D_total_cache_pending_hits = 1536
	L1D_total_cache_reservation_fails = 0
	L1D_cache_data_port_util = 0.001
	L1D_cache_fill_port_util = 0.013
L1C_cache:
	L1C_total_cache_accesses = 4115
	L1C_total_cache_misses = 480
	L1C_total_cache_miss_rate = 0.1166
	L1C_total_cache_pending_hits = 0
	L1C_total_cache_reservation_fails = 3157
L1T_cache:
	L1T_total_cache_accesses = 0
	L1T_total_cache_misses = 0
	L1T_total_cache_pending_hits = 0
	L1T_total_cache_reservation_fails = 0

Total_core_cache_stats:
	Total_core_cache_stats_breakdown[GLOBAL_ACC_R][HIT] = 31
	Total_core_cache_stats_breakdown[GLOBAL_ACC_R][HIT_RESERVED] = 1536
	Total_core_cache_stats_breakdown[GLOBAL_ACC_R][MISS] = 523
	Total_core_cache_stats_breakdown[CONST_ACC_R][HIT] = 3635
	Total_core_cache_stats_breakdown[CONST_ACC_R][MISS] = 480
	Total_core_cache_stats_breakdown[CONST_ACC_R][RESERVATION_FAIL] = 3157
	Total_core_cache_stats_breakdown[GLOBAL_ACC_W][HIT] = 1
	Total_core_cache_stats_breakdown[GLOBAL_ACC_W][MISS] = 25
	Total_core_cache_stats_breakdown[INST_ACC_R][HIT] = 17597
	Total_core_cache_stats_breakdown[INST_ACC_R][MISS] = 962
	Total_core_cache_stats_breakdown[INST_ACC_R][RESERVATION_FAIL] = 6669
Shader 0 warp_id issue ditsribution:
warp_id:
0, 1, 2, 3, 4, 5, 6, 7, 8, 9, 10, 11, 12, 13, 14, 15, 16, 17, 18, 19, 20, 21, 22, 23, 24, 25, 26, 27, 28, 29, 30, 31, 32, 33, 34, 35, 36, 37, 38, 39, 40, 41, 42, 43, 44, 45, 46, 47, 
distro:
45, 45, 45, 45, 45, 45, 45, 45, 45, 45, 45, 45, 45, 45, 45, 45, 45, 45, 45, 45, 45, 45, 45, 45, 45, 45, 45, 45, 45, 45, 45, 45, 45, 45, 45, 45, 45, 45, 45, 45, 45, 45, 45, 45, 45, 45, 45, 45, 
gpgpu_n_tot_thrd_icount = 990816
gpgpu_n_tot_w_icount = 30963
gpgpu_n_stall_shd_mem = 3157
gpgpu_n_mem_read_local = 0
gpgpu_n_mem_write_local = 0
gpgpu_n_mem_read_global = 523
gpgpu_n_mem_write_global = 26
gpgpu_n_mem_texture = 0
gpgpu_n_mem_const = 15
gpgpu_n_load_insn  = 65578
gpgpu_n_store_insn = 26
gpgpu_n_shmem_insn = 0
gpgpu_n_tex_insn = 0
gpgpu_n_const_mem_insn = 0
gpgpu_n_param_mem_insn = 131091
gpgpu_n_shmem_bkconflict = 0
gpgpu_n_cache_bkconflict = 0
gpgpu_n_intrawarp_mshr_merge = 0
gpgpu_n_cmem_portconflict = 3157
gpgpu_stall_shd_mem[c_mem][bk_conf] = 3157
gpgpu_stall_shd_mem[c_mem][mshr_rc] = 0
gpgpu_stall_shd_mem[c_mem][icnt_rc] = 0
gpgpu_stall_shd_mem[c_mem][data_port_stall] = 0
gpgpu_stall_shd_mem[t_mem][mshr_rc] = 0
gpgpu_stall_shd_mem[t_mem][icnt_rc] = 0
gpgpu_stall_shd_mem[t_mem][data_port_stall] = 0
gpgpu_stall_shd_mem[s_mem][bk_conf] = 0
gpgpu_stall_shd_mem[gl_mem][bk_conf] = 0
gpgpu_stall_shd_mem[gl_mem][coal_stall] = 0
gpgpu_stall_shd_mem[gl_mem][data_port_stall] = 0
gpgpu_stall_shd_mem[g_mem_ld][mshr_rc] = 0
gpgpu_stall_shd_mem[g_mem_ld][icnt_rc] = 0
gpgpu_stall_shd_mem[g_mem_ld][wb_icnt_rc] = 0
gpgpu_stall_shd_mem[g_mem_ld][wb_rsrv_fail] = 0
gpgpu_stall_shd_mem[g_mem_st][mshr_rc] = 0
gpgpu_stall_shd_mem[g_mem_st][icnt_rc] = 0
gpgpu_stall_shd_mem[g_mem_st][wb_icnt_rc] = 0
gpgpu_stall_shd_mem[g_mem_st][wb_rsrv_fail] = 0
gpgpu_stall_shd_mem[l_mem_ld][mshr_rc] = 0
gpgpu_stall_shd_mem[l_mem_ld][icnt_rc] = 0
gpgpu_stall_shd_mem[l_mem_ld][wb_icnt_rc] = 0
gpgpu_stall_shd_mem[l_mem_ld][wb_rsrv_fail] = 0
gpgpu_stall_shd_mem[l_mem_st][mshr_rc] = 0
gpgpu_stall_shd_mem[l_mem_st][icnt_rc] = 0
gpgpu_stall_shd_mem[l_mem_ld][wb_icnt_rc] = 0
gpgpu_stall_shd_mem[l_mem_ld][wb_rsrv_fail] = 0
gpu_reg_bank_conflict_stalls = 0
Warp Occupancy Distribution:
Stall:7157	W0_Idle:18424	W0_Scoreboard:23932	W1:243	W2:0	W3:0	W4:0	W5:0	W6:0	W7:0	W8:0	W9:0	W10:0	W11:0	W12:0	W13:0	W14:0	W15:0	W16:0	W17:0	W18:0	W19:0	W20:0	W21:0	W22:0	W23:0	W24:0	W25:0	W26:0	W27:0	W28:0	W29:0	W30:0	W31:0	W32:30720
traffic_breakdown_coretomem[CONST_ACC_R] = 120 {8:15,}
traffic_breakdown_coretomem[GLOBAL_ACC_R] = 4184 {8:523,}
traffic_breakdown_coretomem[GLOBAL_ACC_W] = 1040 {40:26,}
traffic_breakdown_coretomem[INST_ACC_R] = 256 {8:32,}
traffic_breakdown_memtocore[CONST_ACC_R] = 1080 {72:15,}
traffic_breakdown_memtocore[GLOBAL_ACC_R] = 71128 {136:523,}
traffic_breakdown_memtocore[GLOBAL_ACC_W] = 208 {8:26,}
traffic_breakdown_memtocore[INST_ACC_R] = 4352 {136:32,}
maxmrqlatency = 46 
maxdqlatency = 0 
maxmflatency = 321 
averagemflatency = 265 
max_icnt2mem_latency = 36 
max_icnt2sh_latency = 5903 
mrq_lat_table:393 	41 	40 	52 	17 	5 	0 	0 	0 	0 	0 	0 	0 	0 	0 	0 	0 	0 	0 	0 	0 	0 	0 	0 	0 	0 	0 	0 	0 	0 	0 	0 	
dq_lat_table:0 	0 	0 	0 	0 	0 	0 	0 	0 	0 	0 	0 	0 	0 	0 	0 	0 	0 	0 	0 	0 	0 	0 	0 	0 	0 	0 	0 	0 	0 	0 	0 	
mf_lat_table:0 	0 	0 	0 	0 	0 	0 	30 	534 	0 	0 	0 	0 	0 	0 	0 	0 	0 	0 	0 	0 	0 	0 	0 	0 	0 	0 	0 	0 	0 	0 	0 	
icnt2mem_lat_table:0 	0 	0 	585 	8 	3 	0 	0 	0 	0 	0 	0 	0 	0 	0 	0 	0 	0 	0 	0 	0 	0 	0 	0 	
icnt2sh_lat_table:0 	0 	0 	318 	188 	30 	2 	0 	0 	0 	2 	9 	15 	0 	0 	0 	0 	0 	0 	0 	0 	0 	0 	0 	
mf_lat_pw_table:0 	0 	0 	0 	0 	0 	0 	6 	4 	0 	0 	0 	0 	0 	0 	0 	0 	0 	0 	0 	0 	0 	0 	0 	0 	0 	0 	0 	0 	0 	0 	0 	
maximum concurrent accesses to same row:
dram[0]:         1         0         0         0         0         0         0         0         0         0         0         0         0         0         0         0 
dram[1]:         0         0         0         0         0         0         0         0         0         0         0         0         0         0         0         0 
dram[2]:         0         0         0         0         0         0         0         0         0         0         0         0         0         0         0         0 
dram[3]:         0         0         0         0         0         0         0         0         0         0         0         0         0         0         0         0 
dram[4]:         0         0         0         0         0         0         0         0         0         0        22        22         0         0         0         0 
dram[5]:         0         0         0         0         0         0         0         0         0         0         0         0         0         0         0         0 
maximum service time to same row:
dram[0]:      1559         0      5885         0         0         0         0         0         0         0       929       897      1729      1741         0         0 
dram[1]:      1176         0         0         0         0         0         0         0         0         0       934       904      1774      1749         0      3946 
dram[2]:         0         0         0      3069         0      1585         0         0         0      4281       935       907      1738      1510         0         0 
dram[3]:         0         0         0      5079         0      4679         0         0         0         0       944       904      1807      1750         0         0 
dram[4]:         0      3872         0         0         0      5478         0         0         0         0      1250      2561      1746      1754      3138         0 
dram[5]:         0         0         0         0         0         0         0         0         0         0       913       916      1754      1785      5550         0 
average row accesses per activate:
dram[0]:  1.000000      -nan  2.000000      -nan      -nan      -nan      -nan      -nan      -nan      -nan 20.000000 22.000000 22.000000 22.000000      -nan      -nan 
dram[1]:  2.000000      -nan      -nan      -nan      -nan      -nan      -nan      -nan      -nan      -nan 20.000000 22.000000 24.000000 22.000000      -nan  3.000000 
dram[2]:      -nan      -nan      -nan  2.000000      -nan  1.000000      -nan      -nan      -nan  2.000000 20.000000 22.000000 22.000000 22.000000      -nan      -nan 
dram[3]:      -nan      -nan      -nan  2.000000      -nan  2.000000      -nan      -nan      -nan      -nan 20.000000 22.000000 22.000000 20.000000      -nan      -nan 
dram[4]:      -nan  2.000000      -nan      -nan      -nan  2.000000      -nan      -nan      -nan      -nan  8.333333 12.000000 22.000000 20.000000  2.000000      -nan 
dram[5]:      -nan      -nan      -nan      -nan      -nan      -nan      -nan      -nan      -nan      -nan 22.000000 22.000000 22.000000 20.000000  1.000000      -nan 
average row locality = 548/43 = 12.744186
number of total memory accesses made:
dram[0]:         0         0         0         0         0         0         0         0         0         0         0         0         0         0         0         0 
dram[1]:         0         0         0         0         0         0         0         0         0         0         0         0         0         0         0         0 
dram[2]:         0         0         0         0         0         0         0         0         0         0         0         0         0         0         0         0 
dram[3]:         0         0         0         0         0         0         0         0         0         0         0         0         0         0         0         0 
dram[4]:         0         0         0         0         0         0         0         0         0         0         0         0         0         0         0         0 
dram[5]:         0         0         0         0         0         0         0         0         0         0         0         0         0         0         0         0 
total accesses: 0
min_bank_accesses = 0!
min_chip_accesses = 0!
number of total read accesses:
dram[0]:         4         0         1         0         0         0         0         0         0         0        20        22        22        22         0         0 
dram[1]:         2         0         0         0         0         0         0         0         0         0        20        22        24        22         0         3 
dram[2]:         0         0         0         1         0         1         0         0         0         1        20        22        22        21         0         0 
dram[3]:         0         0         0         1         0         1         0         0         0         0        20        22        22        20         0         0 
dram[4]:         0         1         0         0         0         1         0         0         0         0        24        23        22        20         2         0 
dram[5]:         0         0         0         0         0         0         0         0         0         0        22        22        22        20         1         0 
total reads: 538
min_bank_accesses = 0!
chip skew: 93/86 = 1.08
number of total write accesses:
dram[0]:         0         0         1         0         0         0         0         0         0         0         0         0         0         0         0         0 
dram[1]:         0         0         0         0         0         0         0         0         0         0         0         0         0         0         0         0 
dram[2]:         0         0         0         1         0         0         0         0         0         1         0         0         0         1         0         0 
dram[3]:         0         0         0         1         0         1         0         0         0         0         0         0         0         0         0         0 
dram[4]:         0         1         0         0         0         1         0         0         0         0         1         1         0         0         0         0 
dram[5]:         0         0         0         0         0         0         0         0         0         0         0         0         0         0         0         0 
total reads: 10
min_bank_accesses = 0!
min_chip_accesses = 0!
average mf latency per bank:
dram[0]:       1051    none         125    none      none      none      none      none      none      none         269       269       290       266    none      none  
dram[1]:          0    none      none      none      none      none      none      none      none      none         276       268       263       269    none         262
dram[2]:     none      none      none         126    none         268    none      none      none         126       266       264       271       255    none      none  
dram[3]:     none      none      none         126    none         125    none      none      none      none         280       285       276       266    none      none  
dram[4]:     none         126    none      none      none         126    none      none      none      none         298       258       278       276       263    none  
dram[5]:     none      none      none      none      none      none      none      none      none      none         265       269       274       272       268    none  
maximum mf latency per bank:
dram[0]:        282         0       251         0         0         0         0         0         0         0       294       283       321       301         0         0
dram[1]:          0         0         0         0         0         0         0         0         0         0       290       284       274       292         0       268
dram[2]:          0         0         0       252         0       268         0         0         0       252       277       282       313       288         0         0
dram[3]:          0         0         0       252         0       251         0         0         0         0       289       287       282       280         0         0
dram[4]:          0       252         0         0         0       252         0         0         0         0       281       285       317       319       268         0
dram[5]:          0         0         0         0         0         0         0         0         0         0       291       280       318       299       268         0

Number of Memory Banks Accessed per Memory Operation per Warp (from 0):
0	0	0	0	0	0	0	0	0	0	0	0	0	0	0	0	0	0	0	0	0	0	0	0	0	0	0	0	0	0	0	0	0	0	0	0	0	0	0	0	0	0	0	0	0	0	0	0	0	0	0	0	0	0	0	0	0	0	0	0	0	0	0	0	0	0	0	0	0	0	0	0	0	0	0	0	0	0	0	0	0	0	0	0	0	0	0	0	0	0	0	0	0	0	0	0	
Average # of Memory Banks Accessed per Memory Operation per Warp=-nan

position of mrq chosen
0	0	0	0	0	0	0	0	0	0	0	0	0	0	0	0	

average position of mrq chosen = -nan
Memory Partition 0: 
Cache L2_bank_000:
MSHR contents
MSHR: tag=0x80234400, atomic=0 1 entries : 0x7f23bc0f53d0 :  mf: uid= 34626, sid01:w00, part=0, addr=0x80234440, load , size=32, unknown  status = IN_PARTITION_DRAM (5903), 

Cache L2_bank_001:
MSHR contents

In Dram Latency Queue (total = 0): 
DRAM[0]: 16 bks, busW=4 BL=8 CL=12, tRRD=2 tCCD=6, tRCD=12 tRAS=28 tRP=12 tRC=40
n_cmd=7792 n_nop=7597 n_act=9 n_pre=3 n_req=92 n_rd=182 n_write=1 bw_util=0.09394
n_activity=993 dram_eff=0.7372
bk0: 8a 7690i bk1: 0a 7787i bk2: 2a 7766i bk3: 0a 7789i bk4: 0a 7790i bk5: 0a 7792i bk6: 0a 7794i bk7: 0a 7794i bk8: 0a 7795i bk9: 0a 7795i bk10: 40a 7678i bk11: 44a 7624i bk12: 44a 7643i bk13: 44a 7620i bk14: 0a 7790i bk15: 0a 7790i 
dram_util_bins: 0 0 0 0 0 0 0 0 0 0
dram_eff_bins: 0 0 0 0 0 0 0 0 0 0
mrqq: max=3 avg=0.035806
Memory Partition 1: 
Cache L2_bank_002:
MSHR contents

Cache L2_bank_003:
MSHR contents

In Dram Latency Queue (total = 0): 
DRAM[1]: 16 bks, busW=4 BL=8 CL=12, tRRD=2 tCCD=6, tRCD=12 tRAS=28 tRP=12 tRC=40
n_cmd=7792 n_nop=7600 n_act=6 n_pre=0 n_req=93 n_rd=186 n_write=0 bw_util=0.09548
n_activity=926 dram_eff=0.8035
bk0: 4a 7768i bk1: 0a 7789i bk2: 0a 7790i bk3: 0a 7790i bk4: 0a 7790i bk5: 0a 7790i bk6: 0a 7792i bk7: 0a 7794i bk8: 0a 7795i bk9: 0a 7795i bk10: 40a 7683i bk11: 44a 7612i bk12: 48a 7664i bk13: 44a 7601i bk14: 0a 7790i bk15: 6a 7766i 
dram_util_bins: 0 0 0 0 0 0 0 0 0 0
dram_eff_bins: 0 0 0 0 0 0 0 0 0 0
mrqq: max=2 avg=0.025154
Memory Partition 2: 
Cache L2_bank_004:
MSHR contents

Cache L2_bank_005:
MSHR contents

In Dram Latency Queue (total = 0): 
DRAM[2]: 16 bks, busW=4 BL=8 CL=12, tRRD=2 tCCD=6, tRCD=12 tRAS=28 tRP=12 tRC=40
n_cmd=7792 n_nop=7606 n_act=7 n_pre=0 n_req=91 n_rd=176 n_write=3 bw_util=0.09189
n_activity=951 dram_eff=0.7529
bk0: 0a 7792i bk1: 0a 7793i bk2: 0a 7793i bk3: 2a 7768i bk4: 0a 7791i bk5: 2a 7774i bk6: 0a 7792i bk7: 0a 7794i bk8: 0a 7794i bk9: 2a 7769i bk10: 40a 7671i bk11: 44a 7616i bk12: 44a 7662i bk13: 42a 7620i bk14: 0a 7789i bk15: 0a 7791i 
dram_util_bins: 0 0 0 0 0 0 0 0 0 0
dram_eff_bins: 0 0 0 0 0 0 0 0 0 0
mrqq: max=4 avg=0.0272074
Memory Partition 3: 
Cache L2_bank_006:
MSHR contents

Cache L2_bank_007:
MSHR contents

In Dram Latency Queue (total = 0): 
DRAM[3]: 16 bks, busW=4 BL=8 CL=12, tRRD=2 tCCD=6, tRCD=12 tRAS=28 tRP=12 tRC=40
n_cmd=7792 n_nop=7612 n_act=6 n_pre=0 n_req=88 n_rd=172 n_write=2 bw_util=0.08932
n_activity=830 dram_eff=0.8386
bk0: 0a 7790i bk1: 0a 7792i bk2: 0a 7793i bk3: 2a 7768i bk4: 0a 7792i bk5: 2a 7769i bk6: 0a 7792i bk7: 0a 7793i bk8: 0a 7794i bk9: 0a 7794i bk10: 40a 7679i bk11: 44a 7616i bk12: 44a 7675i bk13: 40a 7646i bk14: 0a 7789i bk15: 0a 7789i 
dram_util_bins: 0 0 0 0 0 0 0 0 0 0
dram_eff_bins: 0 0 0 0 0 0 0 0 0 0
mrqq: max=3 avg=0.0309292
Memory Partition 4: 
Cache L2_bank_008:
MSHR contents

Cache L2_bank_009:
MSHR contents

In Dram Latency Queue (total = 0): 
DRAM[4]: 16 bks, busW=4 BL=8 CL=12, tRRD=2 tCCD=6, tRCD=12 tRAS=28 tRP=12 tRC=40
n_cmd=7792 n_nop=7589 n_act=10 n_pre=3 n_req=97 n_rd=186 n_write=4 bw_util=0.09754
n_activity=1021 dram_eff=0.7444
bk0: 0a 7789i bk1: 2a 7766i bk2: 0a 7790i bk3: 0a 7790i bk4: 0a 7791i bk5: 2a 7770i bk6: 0a 7795i bk7: 0a 7796i bk8: 0a 7797i bk9: 0a 7797i bk10: 48a 7615i bk11: 46a 7578i bk12: 44a 7655i bk13: 40a 7602i bk14: 4a 7767i bk15: 0a 7787i 
dram_util_bins: 0 0 0 0 0 0 0 0 0 0
dram_eff_bins: 0 0 0 0 0 0 0 0 0 0
mrqq: max=5 avg=0.0547998
Memory Partition 5: 
Cache L2_bank_010:
MSHR contents

Cache L2_bank_011:
MSHR contents

In Dram Latency Queue (total = 0): 
DRAM[5]: 16 bks, busW=4 BL=8 CL=12, tRRD=2 tCCD=6, tRCD=12 tRAS=28 tRP=12 tRC=40
n_cmd=7792 n_nop=7613 n_act=5 n_pre=0 n_req=87 n_rd=174 n_write=0 bw_util=0.08932
n_activity=786 dram_eff=0.8855
bk0: 0a 7788i bk1: 0a 7789i bk2: 0a 7789i bk3: 0a 7791i bk4: 0a 7791i bk5: 0a 7792i bk6: 0a 7793i bk7: 0a 7794i bk8: 0a 7795i bk9: 0a 7796i bk10: 44a 7671i bk11: 44a 7598i bk12: 44a 7656i bk13: 40a 7643i bk14: 2a 7773i bk15: 0a 7788i 
dram_util_bins: 0 0 0 0 0 0 0 0 0 0
dram_eff_bins: 0 0 0 0 0 0 0 0 0 0
mrqq: max=4 avg=0.0486396

========= L2 cache stats =========
L2_cache_bank[0]: Access = 77, Miss = 47, Miss_rate = 0.610, Pending_hits = 6, Reservation_fails = 224
L2_cache_bank[1]: Access = 44, Miss = 44, Miss_rate = 1.000, Pending_hits = 0, Reservation_fails = 0
L2_cache_bank[2]: Access = 61, Miss = 46, Miss_rate = 0.754, Pending_hits = 3, Reservation_fails = 109
L2_cache_bank[3]: Access = 47, Miss = 47, Miss_rate = 1.000, Pending_hits = 0, Reservation_fails = 0
L2_cache_bank[4]: Access = 42, Miss = 42, Miss_rate = 1.000, Pending_hits = 0, Reservation_fails = 0
L2_cache_bank[5]: Access = 46, Miss = 46, Miss_rate = 1.000, Pending_hits = 0, Reservation_fails = 0
L2_cache_bank[6]: Access = 45, Miss = 42, Miss_rate = 0.933, Pending_hits = 0, Reservation_fails = 0
L2_cache_bank[7]: Access = 46, Miss = 44, Miss_rate = 0.957, Pending_hits = 0, Reservation_fails = 0
L2_cache_bank[8]: Access = 56, Miss = 48, Miss_rate = 0.857, Pending_hits = 0, Reservation_fails = 0
L2_cache_bank[9]: Access = 45, Miss = 45, Miss_rate = 1.000, Pending_hits = 0, Reservation_fails = 0
L2_cache_bank[10]: Access = 45, Miss = 45, Miss_rate = 1.000, Pending_hits = 0, Reservation_fails = 0
L2_cache_bank[11]: Access = 42, Miss = 42, Miss_rate = 1.000, Pending_hits = 0, Reservation_fails = 0
L2_total_cache_accesses = 596
L2_total_cache_misses = 538
L2_total_cache_miss_rate = 0.9027
L2_total_cache_pending_hits = 9
L2_total_cache_reservation_fails = 333
L2_total_cache_breakdown:
	L2_cache_stats_breakdown[GLOBAL_ACC_R][MISS] = 523
	L2_cache_stats_breakdown[CONST_ACC_R][HIT] = 11
	L2_cache_stats_breakdown[CONST_ACC_R][HIT_RESERVED] = 3
	L2_cache_stats_breakdown[CONST_ACC_R][MISS] = 1
	L2_cache_stats_breakdown[CONST_ACC_R][RESERVATION_FAIL] = 108
	L2_cache_stats_breakdown[GLOBAL_ACC_W][HIT] = 16
	L2_cache_stats_breakdown[GLOBAL_ACC_W][MISS] = 10
	L2_cache_stats_breakdown[INST_ACC_R][HIT] = 22
	L2_cache_stats_breakdown[INST_ACC_R][HIT_RESERVED] = 6
	L2_cache_stats_breakdown[INST_ACC_R][MISS] = 4
	L2_cache_stats_breakdown[INST_ACC_R][RESERVATION_FAIL] = 225
L2_cache_data_port_util = 0.002
L2_cache_fill_port_util = 0.030

icnt_total_pkts_mem_to_simt=2846
icnt_total_pkts_simt_to_mem=622
LD_mem_lat_dist  0 0 0 0 0 0 0 0 0 0 0 0 0 0 0 0 0 0 0 0 0 0 0 0 0 0 0
ST_mem_lat_dist  0 0 0 0 0 0 0 0 0 0 0 0 0 0 0 0 0 0 0 0 0 0 0 0 0 0 0
----------------------------Interconnect-DETAILS--------------------------------
Class 0:
Packet latency average = 10.7273
	minimum = 6
	maximum = 62
Network latency average = 9.96728
	minimum = 6
	maximum = 40
Slowest packet = 14
Flit latency average = 8.89273
	minimum = 6
	maximum = 36
Slowest flit = 1912
Fragmentation average = 0
	minimum = 0
	maximum = 0
Injected packet rate average = 0.00747767
	minimum = 0.00592818 (at node 9)
	maximum = 0.013042 (at node 15)
Accepted packet rate average = 0.00747767
	minimum = 0.00592818 (at node 9)
	maximum = 0.013042 (at node 15)
Injected flit rate average = 0.0217555
	minimum = 0.00592818 (at node 9)
	maximum = 0.0580962 (at node 15)
Accepted flit rate average= 0.0217555
	minimum = 0.00711382 (at node 19)
	maximum = 0.0447154 (at node 1)
Injected packet length average = 2.9094
Accepted packet length average = 2.9094
Total in-flight flits = 0 (0 measured)
====== Overall Traffic Statistics ======
====== Traffic class 0 ======
Packet latency average = 10.7273 (1 samples)
	minimum = 6 (1 samples)
	maximum = 62 (1 samples)
Network latency average = 9.96728 (1 samples)
	minimum = 6 (1 samples)
	maximum = 40 (1 samples)
Flit latency average = 8.89273 (1 samples)
	minimum = 6 (1 samples)
	maximum = 36 (1 samples)
Fragmentation average = 0 (1 samples)
	minimum = 0 (1 samples)
	maximum = 0 (1 samples)
Injected packet rate average = 0.00747767 (1 samples)
	minimum = 0.00592818 (1 samples)
	maximum = 0.013042 (1 samples)
Accepted packet rate average = 0.00747767 (1 samples)
	minimum = 0.00592818 (1 samples)
	maximum = 0.013042 (1 samples)
Injected flit rate average = 0.0217555 (1 samples)
	minimum = 0.00592818 (1 samples)
	maximum = 0.0580962 (1 samples)
Accepted flit rate average = 0.0217555 (1 samples)
	minimum = 0.00711382 (1 samples)
	maximum = 0.0447154 (1 samples)
Injected packet size average = 2.9094 (1 samples)
Accepted packet size average = 2.9094 (1 samples)
Hops average = 1 (1 samples)
----------------------------END-of-Interconnect-DETAILS-------------------------
GPGPU-Sim API: Stream Manager State


gpgpu_simulation_time = 0 days, 0 hrs, 0 min, 3 sec (3 sec)
gpgpu_simulation_rate = 305912 (inst/sec)
gpgpu_simulation_rate = 1968 (cycle/sec)
GPGPU-Sim: detected inactive GPU simulation thread

GPGPU-Sim PTX: cudaLaunch for 0x0x405636 (mode=performance simulation) on stream 0
GPGPU-Sim PTX: pushing kernel '_Z6KernelP4NodePiPbS2_S1_S2_i' to stream 0, gridDim= (256,1,1) blockDim = (256,1,1) 
[...]
traffic_breakdown_coretomem[GLOBAL_ACC_W] = 16552616 {40:413074,72:87,136:172,}
traffic_breakdown_coretomem[INST_ACC_R] = 480 {8:60,}
traffic_breakdown_memtocore[CONST_ACC_R] = 1080 {72:15,}
traffic_breakdown_memtocore[GLOBAL_ACC_R] = 84323672 {136:620027,}
traffic_breakdown_memtocore[GLOBAL_ACC_W] = 3306664 {8:413333,}
traffic_breakdown_memtocore[INST_ACC_R] = 8160 {136:60,}
maxmrqlatency = 602 
maxdqlatency = 0 
maxmflatency = 1266 
averagemflatency = 396 
max_icnt2mem_latency = 991 
max_icnt2sh_latency = 760467 
mrq_lat_table:46076 	3894 	1305 	3893 	5520 	1212 	672 	320 	26 	1 	0 	0 	0 	0 	0 	0 	0 	0 	0 	0 	0 	0 	0 	0 	0 	0 	0 	0 	0 	0 	0 	0 	
dq_lat_table:0 	0 	0 	0 	0 	0 	0 	0 	0 	0 	0 	0 	0 	0 	0 	0 	0 	0 	0 	0 	0 	0 	0 	0 	0 	0 	0 	0 	0 	0 	0 	0 	
mf_lat_table:0 	0 	0 	0 	0 	0 	0 	132515 	710459 	190349 	52 	0 	0 	0 	0 	0 	0 	0 	0 	0 	0 	0 	0 	0 	0 	0 	0 	0 	0 	0 	0 	0 	
icnt2mem_lat_table:0 	0 	0 	85161 	30838 	79482 	325939 	240134 	267740 	4141 	0 	0 	0 	0 	0 	0 	0 	0 	0 	0 	0 	0 	0 	0 	
icnt2sh_lat_table:0 	0 	0 	37220 	293259 	271620 	17835 	108 	0 	0 	2 	9 	38 	943 	8958 	18824 	44340 	99314 	169655 	71250 	0 	0 	0 	0 	
mf_lat_pw_table:0 	0 	0 	0 	0 	0 	0 	100 	1428 	1 	0 	0 	0 	0 	0 	0 	0 	0 	0 	0 	0 	0 	0 	0 	0 	0 	0 	0 	0 	0 	0 	0 	
maximum concurrent accesses to same row:
dram[0]:        30        29        18        25        26        21        32        35        37        33        20        36        32        32        37        34 
dram[1]:        36        38        50        24        23        15        30        30        41        27        23        24        38        35        39        40 
dram[2]:        31        32        61        44        24        26        32        32        30        34        24        28        32        32        39        57 
dram[3]:        21        25        30        37        32        27        31        28        28        18        26        26        32        32        33        34 
dram[4]:        32        31        31        34        25        21        32        32        33        35        23        22        33        32        33        33 
dram[5]:        40        42        30        43        22        22        27        26        28        27        22        24        32        31        32        32 
maximum service time to same row:
dram[0]:     65292     60188     65568     32551     55794     48186     41153     39540     82600     46835     51142     87747    106789     72116     90251     99879 
dram[1]:     54330     63042     64221     68478    101553     67512     44156     44413     61619     78658     65191     77178     97878    125916     68634     95139 
dram[2]:     52387     38336     68730     71128     57306     56285     45808     67138     48220     58953     81353     93067     52169     65296    115700    139706 
dram[3]:     42265     40698    101605     87731     46497     47358     60844     47328     48632     40535     48291    102215     56687     85535     65172     67450 
dram[4]:     58680     78500     50696     55456     53999     56973     70761     60898     50243     41648     58765     74084    100922     75895     67073     98447 
dram[5]:     83213     62056    110524    105703    126859     56872     51750     57006     69079     35890     48270     49786     86672     89436    137850    136459 
average row accesses per activate:
dram[0]:  3.534759  3.007663  3.137652  3.043825  4.340425  3.904762  3.585903  3.527273  4.432099  4.481928  3.164251  3.712575  4.417476  4.586538  6.578125  6.693548 
dram[1]:  3.635514  4.434286  3.587156  3.517413  3.100000  3.215962  3.534562  3.359504  3.226191  3.294872  3.485714  3.217391  3.821705  4.780000  5.275862  7.370968 
dram[2]:  3.178723  3.534884  4.415663  3.977273  3.614458  3.673684  4.089386  4.726115  3.727273  3.570776  3.017857  3.185714  4.979798  4.846154  6.409091  6.214286 
dram[3]:  3.044534  2.893130  4.301075  4.294117  3.742331  4.029412  4.374302  3.681592  3.705882  3.178862  2.917355  2.968036  4.136752  4.279279  5.909091  5.046512 
dram[4]:  3.972067  3.976608  3.613065  3.625641  3.783626  3.959302  3.791444  4.142857  4.494118  4.640718  3.280000  3.722222  4.472222  4.088496  7.666667  8.652174 
dram[5]:  3.165254  3.326180  3.323404  3.085271  3.389163  3.356097  4.291667  3.967391  3.363248  3.222672  3.142180  3.376238  4.431193  4.946237  6.694915  6.741935 
average row locality = 62919/16662 = 3.776197
number of total memory accesses made:
dram[0]:         0         0         0         0         0         0         0         0         0         0         0         0         0         0         0         0 
dram[1]:         0         0         0         0         0         0         0         0         0         0         0         0         0         0         0         0 
dram[2]:         0         0         0         0         0         0         0         0         0         0         0         0         0         0         0         0 
dram[3]:         0         0         0         0         0         0         0         0         0         0         0         0         0         0         0         0 
dram[4]:         0         0         0         0         0         0         0         0         0         0         0         0         0         0         0         0 
dram[5]:         0         0         0         0         0         0         0         0         0         0         0         0         0         0         0         0 
total accesses: 0
min_bank_accesses = 0!
min_chip_accesses = 0!
number of total read accesses:
dram[0]:       487       543       550       544       477       499       620       591       545       560       525       516       428       445       419       415 
dram[1]:       542       539       530       517       519       535       595       621       606       573       564       525       453       449       458       456 
dram[2]:       528       534       526       493       463       521       560       561       561       583       550       550       465       473       421       431 
dram[3]:       523       527       546       511       470       508       593       561       575       582       556       527       449       445       453       431 
dram[4]:       508       495       509       511       499       511       561       510       582       584       526       497       450       432       436       398 
dram[5]:       528       544       559       565       509       528       553       566       587       582       540       535       443       432       395       418 
total reads: 49416
bank skew: 621/395 = 1.57
chip skew: 8482/8009 = 1.06
number of total write accesses:
dram[0]:       174       242       225       220       135       157       194       185       173       184       130       104        27        32         2         0 
dram[1]:       236       237       252       190       163       150       172       192       207       198       168       141        40        29         1         1 
dram[2]:       219       226       207       207       137       177       172       181       177       199       126       119        28        31         2         4 
dram[3]:       229       231       254       219       140       177       190       179       181       200       150       123        35        30         2         3 
dram[4]:       203       185       210       196       148       170       148       128       182       191       130       106        33        30         1         0 
dram[5]:       219       231       222       231       179       160       168       164       200       214       123       147        40        28         0         0 
total reads: 13503
min_bank_accesses = 0!
chip skew: 2377/2061 = 1.15
average mf latency per bank:
dram[0]:       3051      2588      2980      2973      3825      3484      3059      3036      3104      3044      6482      6998     14498     13789     21865     21987
dram[1]:       2681      2688      2967      3373      3583      3655      3300      3173      2964      3054      5764      6681     13548     14171     20462     20967
dram[2]:       2744      2676      3035      3139      3881      3419      3308      3272      3122      2925      6121      6712     13075     13677     21075     21496
dram[3]:       2750      2698      2807      3155      3748      3454      3150      3331      2987      2815      5829      6704     13353     14489     20050     21576
dram[4]:       3706      3070      4059      3223      4865      3551      4611      3801      3944      2878     39480      7403     18495     14969     28153     23682
dram[5]:       2675      2701      2807      2933      3222      3382      3147      3371      2753      2879      6406      6512     13176     14874     22096     22050
maximum mf latency per bank:
dram[0]:        902       831       907       852       913      1062       953       868       850       981       907       951       959       901       889       999
dram[1]:        921       958      1055      1009       888      1059       954       990      1020       957       888       907       981       906       942       934
dram[2]:        879      1024       942       938       930       972       881       923       848       861       871       921       960       880       911       958
dram[3]:        946       973       891      1065       843       924       929       941       879       990       926      1056       881      1041       941      1045
dram[4]:       1110      1009      1072       870      1110       888      1216       963      1052       916      1252       965      1096      1004      1266       951
dram[5]:        892      1012       881       902      1030       895       852       933       934       921       912      1151       931       929      1082      1015

Number of Memory Banks Accessed per Memory Operation per Warp (from 0):
0	0	0	0	0	0	0	0	0	0	0	0	0	0	0	0	0	0	0	0	0	0	0	0	0	0	0	0	0	0	0	0	0	0	0	0	0	0	0	0	0	0	0	0	0	0	0	0	0	0	0	0	0	0	0	0	0	0	0	0	0	0	0	0	0	0	0	0	0	0	0	0	0	0	0	0	0	0	0	0	0	0	0	0	0	0	0	0	0	0	0	0	0	0	0	0	
Average # of Memory Banks Accessed per Memory Operation per Warp=-nan

position of mrq chosen
0	0	0	0	0	0	0	0	0	0	0	0	0	0	0	0	

average position of mrq chosen = -nan
Memory Partition 0: 
Cache L2_bank_000:
MSHR contents

Cache L2_bank_001:
MSHR contents

In Dram Latency Queue (total = 0): 
DRAM[0]: 16 bks, busW=4 BL=8 CL=12, tRRD=2 tCCD=6, tRCD=12 tRAS=28 tRP=12 tRC=40
n_cmd=1007714 n_nop=982703 n_act=2737 n_pre=2721 n_req=10348 n_rd=16328 n_write=3225 bw_util=0.07761
n_activity=174868 dram_eff=0.4473
bk0: 974a 997516i bk1: 1086a 995108i bk2: 1100a 995655i bk3: 1088a 994849i bk4: 954a 999362i bk5: 998a 997901i bk6: 1240a 994853i bk7: 1182a 994834i bk8: 1090a 996673i bk9: 1120a 996404i bk10: 1050a 996264i bk11: 1032a 997441i bk12: 856a 1001373i bk13: 890a 1000354i bk14: 838a 1002578i bk15: 830a 1003157i 
dram_util_bins: 0 0 0 0 0 0 0 0 0 0
dram_eff_bins: 0 0 0 0 0 0 0 0 0 0
mrqq: max=16 avg=0.0907738
Memory Partition 1: 
Cache L2_bank_002:
MSHR contents

Cache L2_bank_003:
MSHR contents

In Dram Latency Queue (total = 0): 
DRAM[1]: 16 bks, busW=4 BL=8 CL=12, tRRD=2 tCCD=6, tRCD=12 tRAS=28 tRP=12 tRC=40
n_cmd=1007714 n_nop=981314 n_act=2981 n_pre=2965 n_req=10859 n_rd=16964 n_write=3490 bw_util=0.08119
n_activity=186202 dram_eff=0.4394
bk0: 1084a 996650i bk1: 1078a 997298i bk2: 1060a 995754i bk3: 1034a 996804i bk4: 1038a 996980i bk5: 1070a 996864i bk6: 1190a 995994i bk7: 1242a 994961i bk8: 1212a 994755i bk9: 1146a 995164i bk10: 1128a 996624i bk11: 1050a 997009i bk12: 906a 1000749i bk13: 898a 1001636i bk14: 916a 1002605i bk15: 912a 1003587i 
dram_util_bins: 0 0 0 0 0 0 0 0 0 0
dram_eff_bins: 0 0 0 0 0 0 0 0 0 0
mrqq: max=12 avg=0.0553738
Memory Partition 2: 
Cache L2_bank_004:
MSHR contents

Cache L2_bank_005:
MSHR contents

In Dram Latency Queue (total = 0): 
DRAM[2]: 16 bks, busW=4 BL=8 CL=12, tRRD=2 tCCD=6, tRCD=12 tRAS=28 tRP=12 tRC=40
n_cmd=1007714 n_nop=982694 n_act=2674 n_pre=2658 n_req=10432 n_rd=16440 n_write=3248 bw_util=0.07815
n_activity=172748 dram_eff=0.4559
bk0: 1056a 996350i bk1: 1068a 995738i bk2: 1052a 996985i bk3: 986a 996972i bk4: 926a 999066i bk5: 1042a 997440i bk6: 1120a 996212i bk7: 1122a 996436i bk8: 1122a 996520i bk9: 1166a 995303i bk10: 1100a 996608i bk11: 1100a 996587i bk12: 930a 1001033i bk13: 946a 1000544i bk14: 842a 1002951i bk15: 862a 1003311i 
dram_util_bins: 0 0 0 0 0 0 0 0 0 0
dram_eff_bins: 0 0 0 0 0 0 0 0 0 0
mrqq: max=16 avg=0.0882165
Memory Partition 3: 
Cache L2_bank_006:
MSHR contents

Cache L2_bank_007:
MSHR contents

In Dram Latency Queue (total = 0): 
DRAM[3]: 16 bks, busW=4 BL=8 CL=12, tRRD=2 tCCD=6, tRCD=12 tRAS=28 tRP=12 tRC=40
n_cmd=1007714 n_nop=982021 n_act=2880 n_pre=2864 n_req=10600 n_rd=16514 n_write=3435 bw_util=0.07919
n_activity=180014 dram_eff=0.4433
bk0: 1046a 995887i bk1: 1054a 995214i bk2: 1092a 996403i bk3: 1022a 997105i bk4: 940a 998967i bk5: 1016a 997686i bk6: 1186a 996573i bk7: 1122a 996175i bk8: 1150a 996903i bk9: 1164a 995164i bk10: 1112a 996048i bk11: 1054a 996979i bk12: 898a 1000950i bk13: 890a 1001359i bk14: 906a 1002849i bk15: 862a 1003166i 
dram_util_bins: 0 0 0 0 0 0 0 0 0 0
dram_eff_bins: 0 0 0 0 0 0 0 0 0 0
mrqq: max=14 avg=0.0557807
Memory Partition 4: 
Cache L2_bank_008:
MSHR contents

Cache L2_bank_009:
MSHR contents

In Dram Latency Queue (total = 0): 
DRAM[4]: 16 bks, busW=4 BL=8 CL=12, tRRD=2 tCCD=6, tRCD=12 tRAS=28 tRP=12 tRC=40
n_cmd=1007714 n_nop=983762 n_act=2451 n_pre=2435 n_req=10070 n_rd=16018 n_write=3048 bw_util=0.07568
n_activity=168678 dram_eff=0.4521
bk0: 1016a 996698i bk1: 990a 997679i bk2: 1018a 996388i bk3: 1022a 996792i bk4: 998a 998312i bk5: 1022a 997169i bk6: 1122a 995904i bk7: 1020a 997956i bk8: 1164a 997000i bk9: 1168a 996744i bk10: 1052a 996704i bk11: 994a 998124i bk12: 900a 1000414i bk13: 864a 1000348i bk14: 872a 1003027i bk15: 796a 1003593i 
dram_util_bins: 0 0 0 0 0 0 0 0 0 0
dram_eff_bins: 0 0 0 0 0 0 0 0 0 0
mrqq: max=16 avg=0.0928478
Memory Partition 5: 
Cache L2_bank_010:
MSHR contents

Cache L2_bank_011:
MSHR contents

In Dram Latency Queue (total = 0): 
DRAM[5]: 16 bks, busW=4 BL=8 CL=12, tRRD=2 tCCD=6, tRCD=12 tRAS=28 tRP=12 tRC=40
n_cmd=1007714 n_nop=981844 n_act=2939 n_pre=2923 n_req=10610 n_rd=16568 n_write=3440 bw_util=0.07942
n_activity=179666 dram_eff=0.4454
bk0: 1056a 995799i bk1: 1088a 994873i bk2: 1118a 995602i bk3: 1130a 994379i bk4: 1018a 996532i bk5: 1056a 997133i bk6: 1106a 996372i bk7: 1132a 996585i bk8: 1174a 994679i bk9: 1164a 994711i bk10: 1080a 996475i bk11: 1070a 997379i bk12: 886a 1001015i bk13: 864a 1001989i bk14: 790a 1003461i bk15: 836a 1003538i 
dram_util_bins: 0 0 0 0 0 0 0 0 0 0
dram_eff_bins: 0 0 0 0 0 0 0 0 0 0
mrqq: max=16 avg=0.0714995

========= L2 cache stats =========
L2_cache_bank[0]: Access = 82296, Miss = 4051, Miss_rate = 0.049, Pending_hits = 16, Reservation_fails = 252
L2_cache_bank[1]: Access = 82653, Miss = 4113, Miss_rate = 0.050, Pending_hits = 12, Reservation_fails = 640
L2_cache_bank[2]: Access = 82498, Miss = 4267, Miss_rate = 0.052, Pending_hits = 13, Reservation_fails = 110
L2_cache_bank[3]: Access = 83388, Miss = 4215, Miss_rate = 0.051, Pending_hits = 10, Reservation_fails = 2
L2_cache_bank[4]: Access = 81668, Miss = 4074, Miss_rate = 0.050, Pending_hits = 10, Reservation_fails = 11
L2_cache_bank[5]: Access = 82775, Miss = 4146, Miss_rate = 0.050, Pending_hits = 16, Reservation_fails = 341
L2_cache_bank[6]: Access = 82322, Miss = 4165, Miss_rate = 0.051, Pending_hits = 19, Reservation_fails = 1
L2_cache_bank[7]: Access = 83186, Miss = 4092, Miss_rate = 0.049, Pending_hits = 15, Reservation_fails = 1
L2_cache_bank[8]: Access = 122774, Miss = 4071, Miss_rate = 0.033, Pending_hits = 14, Reservation_fails = 877
L2_cache_bank[9]: Access = 83625, Miss = 3938, Miss_rate = 0.047, Pending_hits = 14, Reservation_fails = 672
L2_cache_bank[10]: Access = 82601, Miss = 4114, Miss_rate = 0.050, Pending_hits = 12, Reservation_fails = 59
L2_cache_bank[11]: Access = 83649, Miss = 4170, Miss_rate = 0.050, Pending_hits = 8, Reservation_fails = 1
L2_total_cache_accesses = 1033435
L2_total_cache_misses = 49416
L2_total_cache_miss_rate = 0.0478
L2_total_cache_pending_hits = 159
L2_total_cache_reservation_fails = 2967
L2_total_cache_breakdown:
	L2_cache_stats_breakdown[GLOBAL_ACC_R][HIT] = 577588
	L2_cache_stats_breakdown[GLOBAL_ACC_R][HIT_RESERVED] = 25
	L2_cache_stats_breakdown[GLOBAL_ACC_R][MISS] = 42414
	L2_cache_stats_breakdown[GLOBAL_ACC_R][RESERVATION_FAIL] = 2624
	L2_cache_stats_breakdown[CONST_ACC_R][HIT] = 11
	L2_cache_stats_breakdown[CONST_ACC_R][HIT_RESERVED] = 3
	L2_cache_stats_breakdown[CONST_ACC_R][MISS] = 1
	L2_cache_stats_breakdown[CONST_ACC_R][RESERVATION_FAIL] = 108
	L2_cache_stats_breakdown[GLOBAL_ACC_W][HIT] = 406211
	L2_cache_stats_breakdown[GLOBAL_ACC_W][HIT_RESERVED] = 125
	L2_cache_stats_breakdown[GLOBAL_ACC_W][MISS] = 6997
	L2_cache_stats_breakdown[GLOBAL_ACC_W][RESERVATION_FAIL] = 10
	L2_cache_stats_breakdown[INST_ACC_R][HIT] = 50
	L2_cache_stats_breakdown[INST_ACC_R][HIT_RESERVED] = 6
	L2_cache_stats_breakdown[INST_ACC_R][MISS] = 4
	L2_cache_stats_breakdown[INST_ACC_R][RESERVATION_FAIL] = 225
L2_cache_data_port_util = 0.299
L2_cache_fill_port_util = 0.022

icnt_total_pkts_mem_to_simt=3513813
icnt_total_pkts_simt_to_mem=1447371
LD_mem_lat_dist  0 0 0 0 0 0 0 0 0 0 0 0 0 0 0 0 0 0 0 0 0 0 0 0 0 0 0
ST_mem_lat_dist  0 0 0 0 0 0 0 0 0 0 0 0 0 0 0 0 0 0 0 0 0 0 0 0 0 0 0
----------------------------Interconnect-DETAILS--------------------------------
Class 0:
Packet latency average = 9.78963
	minimum = 6
	maximum = 38
Network latency average = 9.11077
	minimum = 6
	maximum = 33
Slowest packet = 2066115
Flit latency average = 7.6311
	minimum = 6
	maximum = 29
Slowest flit = 4958712
Fragmentation average = 0
	minimum = 0
	maximum = 0
Injected packet rate average = 0.0255213
	minimum = 0.0196078 (at node 2)
	maximum = 0.0308123 (at node 23)
Accepted packet rate average = 0.0255213
	minimum = 0.0196078 (at node 2)
	maximum = 0.0308123 (at node 23)
Injected flit rate average = 0.076564
	minimum = 0.0196078 (at node 2)
	maximum = 0.154062 (at node 23)
Accepted flit rate average= 0.076564
	minimum = 0.0266106 (at node 15)
	maximum = 0.12605 (at node 0)
Injected packet length average = 3
Accepted packet length average = 3
Total in-flight flits = 0 (0 measured)
====== Overall Traffic Statistics ======
====== Traffic class 0 ======
Packet latency average = 32.8462 (9 samples)
	minimum = 6 (9 samples)
	maximum = 291.667 (9 samples)
Network latency average = 21.4431 (9 samples)
	minimum = 6 (9 samples)
	maximum = 239.889 (9 samples)
Flit latency average = 16.21 (9 samples)
	minimum = 6 (9 samples)
	maximum = 237.444 (9 samples)
Fragmentation average = 0.030049 (9 samples)
	minimum = 0 (9 samples)
	maximum = 157.111 (9 samples)
Injected packet rate average = 0.0514288 (9 samples)
	minimum = 0.0397151 (9 samples)
	maximum = 0.0929695 (9 samples)
Accepted packet rate average = 0.0514288 (9 samples)
	minimum = 0.0397151 (9 samples)
	maximum = 0.0929695 (9 samples)
Injected flit rate average = 0.128019 (9 samples)
	minimum = 0.0524974 (9 samples)
	maximum = 0.251403 (9 samples)
Accepted flit rate average = 0.128019 (9 samples)
	minimum = 0.0684055 (9 samples)
	maximum = 0.217256 (9 samples)
Injected packet size average = 2.48924 (9 samples)
Accepted packet size average = 2.48924 (9 samples)
Hops average = 1 (9 samples)
----------------------------END-of-Interconnect-DETAILS-------------------------


gpgpu_simulation_time = 0 days, 0 hrs, 6 min, 19 sec (379 sec)
gpgpu_simulation_rate = 44364 (inst/sec)
gpgpu_simulation_rate = 2014 (cycle/sec)
GPGPU-Sim API: Stream Manager State
GPGPU-Sim: detected inactive GPU simulation thread
Kernel Executed 9 times
Processing time: 378379.562500 (ms)
Result stored in result.txt
