

        *** GPGPU-Sim Simulator Version 3.2.2  [build 0] ***


GPGPU-Sim PTX: simulation mode 0 (can change with PTX_SIM_MODE_FUNC environment variable:
               1=functional simulation only, 0=detailed performance simulator)
GPGPU-Sim: Configuration options:

-network_mode                           1 # Interconnection network mode
-inter_config_file   config_fermi_islip.icnt # Interconnection network config file
-gpgpu_ptx_use_cuobjdump                    1 # Use cuobjdump to extract ptx and sass from binaries
-gpgpu_experimental_lib_support                    0 # Try to extract code from cuda libraries [Broken because of unknown cudaGetExportTable]
-gpgpu_ptx_convert_to_ptxplus                    0 # Convert SASS (native ISA) to ptxplus and run ptxplus
-gpgpu_ptx_force_max_capability                   20 # Force maximum compute capability
-gpgpu_ptx_inst_debug_to_file                    0 # Dump executed instructions' debug information to file
-gpgpu_ptx_inst_debug_file       inst_debug.txt # Executed instructions' debug output file
-gpgpu_ptx_inst_debug_thread_uid                    1 # Thread UID for executed instructions' debug output
-gpgpu_simd_model                       1 # 1 = post-dominator
-gpgpu_shader_core_pipeline              1536:32 # shader core pipeline config, i.e., {<nthread>:<warpsize>}
-gpgpu_tex_cache:l1  4:128:24,L:R:m:N:L,F:128:4,128:2 # per-shader L1 texture cache  (READ-ONLY) config  {<nsets>:<bsize>:<assoc>,<rep>:<wr>:<alloc>:<wr_alloc>,<mshr>:<N>:<merge>,<mq>:<rf>}
-gpgpu_const_cache:l1 64:64:2,L:R:f:N:L,A:2:32,4 # per-shader L1 constant memory cache  (READ-ONLY) config  {<nsets>:<bsize>:<assoc>,<rep>:<wr>:<alloc>:<wr_alloc>,<mshr>:<N>:<merge>,<mq>} 
-gpgpu_cache:il1     4:128:4,L:R:f:N:L,A:2:32,4 # shader L1 instruction cache config  {<nsets>:<bsize>:<assoc>,<rep>:<wr>:<alloc>:<wr_alloc>,<mshr>:<N>:<merge>,<mq>} 
-gpgpu_cache:dl1     64:128:4,L:L:m:N:H,A:32:8,8 # per-shader L1 data cache config  {<nsets>:<bsize>:<assoc>,<rep>:<wr>:<alloc>:<wr_alloc>,<mshr>:<N>:<merge>,<mq> | none}
-gpgpu_cache:dl1PrefL1                 none # per-shader L1 data cache config  {<nsets>:<bsize>:<assoc>,<rep>:<wr>:<alloc>:<wr_alloc>,<mshr>:<N>:<merge>,<mq> | none}
-gpgpu_cache:dl1PreShared                 none # per-shader L1 data cache config  {<nsets>:<bsize>:<assoc>,<rep>:<wr>:<alloc>:<wr_alloc>,<mshr>:<N>:<merge>,<mq> | none}
-gmem_skip_L1D                          0 # global memory access skip L1D cache (implements -Xptxas -dlcm=cg, default=no skip)
-gpgpu_perfect_mem                      0 # enable perfect memory mode (no cache miss)
-n_regfile_gating_group                    4 # group of lanes that should be read/written together)
-gpgpu_clock_gated_reg_file                    0 # enable clock gated reg file for power calculations
-gpgpu_clock_gated_lanes                    0 # enable clock gated lanes for power calculations
-gpgpu_shader_registers                32768 # Number of registers per shader core. Limits number of concurrent CTAs. (default 8192)
-gpgpu_shader_cta                       8 # Maximum number of concurrent CTAs in shader (default 8)
-gpgpu_num_cta_barriers                   16 # Maximum number of named barriers per CTA (default 16)
-gpgpu_n_clusters                      15 # number of processing clusters
-gpgpu_n_cores_per_cluster                    1 # number of simd cores per cluster
-gpgpu_n_cluster_ejection_buffer_size                    8 # number of packets in ejection buffer
-gpgpu_n_ldst_response_buffer_size                    2 # number of response packets in ld/st unit ejection buffer
-gpgpu_shmem_size                   16384 # Size of shared memory per shader core (default 16kB)
-gpgpu_shmem_size                   49152 # Size of shared memory per shader core (default 16kB)
-gpgpu_shmem_size_PrefL1                16384 # Size of shared memory per shader core (default 16kB)
-gpgpu_shmem_size_PrefShared                16384 # Size of shared memory per shader core (default 16kB)
-gpgpu_shmem_num_banks                   32 # Number of banks in the shared memory in each shader core (default 16)
-gpgpu_shmem_limited_broadcast                    0 # Limit shared memory to do one broadcast per cycle (default on)
-gpgpu_shmem_warp_parts                    1 # Number of portions a warp is divided into for shared memory bank conflict check 
-gpgpu_warpdistro_shader                   -1 # Specify which shader core to collect the warp size distribution from
-gpgpu_warp_issue_shader                    0 # Specify which shader core to collect the warp issue distribution from
-gpgpu_local_mem_map                    1 # Mapping from local memory space address to simulated GPU physical address space (default = enabled)
-gpgpu_num_reg_banks                   16 # Number of register banks (default = 8)
-gpgpu_reg_bank_use_warp_id                    0 # Use warp ID in mapping registers to banks (default = off)
-gpgpu_operand_collector_num_units_sp                    6 # number of collector units (default = 4)
-gpgpu_operand_collector_num_units_sfu                    8 # number of collector units (default = 4)
-gpgpu_operand_collector_num_units_mem                    2 # number of collector units (default = 2)
-gpgpu_operand_collector_num_units_gen                    0 # number of collector units (default = 0)
-gpgpu_operand_collector_num_in_ports_sp                    2 # number of collector unit in ports (default = 1)
-gpgpu_operand_collector_num_in_ports_sfu                    1 # number of collector unit in ports (default = 1)
-gpgpu_operand_collector_num_in_ports_mem                    1 # number of collector unit in ports (default = 1)
-gpgpu_operand_collector_num_in_ports_gen                    0 # number of collector unit in ports (default = 0)
-gpgpu_operand_collector_num_out_ports_sp                    2 # number of collector unit in ports (default = 1)
-gpgpu_operand_collector_num_out_ports_sfu                    1 # number of collector unit in ports (default = 1)
-gpgpu_operand_collector_num_out_ports_mem                    1 # number of collector unit in ports (default = 1)
-gpgpu_operand_collector_num_out_ports_gen                    0 # number of collector unit in ports (default = 0)
-gpgpu_coalesce_arch                   13 # Coalescing arch (default = 13, anything else is off for now)
-gpgpu_num_sched_per_core                    2 # Number of warp schedulers per core
-gpgpu_max_insn_issue_per_warp                    1 # Max number of instructions that can be issued per warp in one cycle by scheduler
-gpgpu_simt_core_sim_order                    1 # Select the simulation order of cores in a cluster (0=Fix, 1=Round-Robin)
-gpgpu_pipeline_widths        2,1,1,2,1,1,2 # Pipeline widths ID_OC_SP,ID_OC_SFU,ID_OC_MEM,OC_EX_SP,OC_EX_SFU,OC_EX_MEM,EX_WB
-gpgpu_num_sp_units                     2 # Number of SP units (default=1)
-gpgpu_num_sfu_units                    1 # Number of SF units (default=1)
-gpgpu_num_mem_units                    1 # Number if ldst units (default=1) WARNING: not hooked up to anything
-gpgpu_scheduler                      gto # Scheduler configuration: < lrr | gto | two_level_active > If two_level_active:<num_active_warps>:<inner_prioritization>:<outer_prioritization>For complete list of prioritization values see shader.h enum scheduler_prioritization_typeDefault: gto
-gpgpu_dram_scheduler                    1 # 0 = fifo, 1 = FR-FCFS (defaul)
-gpgpu_dram_partition_queues              8:8:8:8 # i2$:$2d:d2$:$2i
-l2_ideal                               0 # Use a ideal L2 cache that always hit
-gpgpu_cache:dl2     64:128:8,L:B:m:W:L,A:32:4,4:0,32 # unified banked L2 data cache config  {<nsets>:<bsize>:<assoc>,<rep>:<wr>:<alloc>:<wr_alloc>,<mshr>:<N>:<merge>,<mq>}
-gpgpu_cache:dl2_texture_only                    0 # L2 cache used for texture only
-gpgpu_n_mem                            6 # number of memory modules (e.g. memory controllers) in gpu
-gpgpu_n_sub_partition_per_mchannel                    2 # number of memory subpartition in each memory module
-gpgpu_n_mem_per_ctrlr                    2 # number of memory chips per memory controller
-gpgpu_memlatency_stat                   14 # track and display latency statistics 0x2 enables MC, 0x4 enables queue logs
-gpgpu_frfcfs_dram_sched_queue_size                   16 # 0 = unlimited (default); # entries per chip
-gpgpu_dram_return_queue_size                  116 # 0 = unlimited (default); # entries per chip
-gpgpu_dram_buswidth                    4 # default = 4 bytes (8 bytes per cycle at DDR)
-gpgpu_dram_burst_length                    8 # Burst length of each DRAM request (default = 4 data bus cycle)
-dram_data_command_freq_ratio                    4 # Frequency ratio between DRAM data bus and command bus (default = 2 times, i.e. DDR)
-gpgpu_dram_timing_opt nbk=16:CCD=2:RRD=6:RCD=12:RAS=28:RP=12:RC=40: CL=12:WL=4:CDLR=5:WR=12:nbkgrp=4:CCDL=3:RTPL=2 # DRAM timing parameters = {nbk:tCCD:tRRD:tRCD:tRAS:tRP:tRC:CL:WL:tCDLR:tWR:nbkgrp:tCCDL:tRTPL}
-rop_latency                          120 # ROP queue latency (default 85)
-dram_latency                         100 # DRAM latency (default 30)
-gpgpu_mem_addr_mapping dramid@8;00000000.00000000.00000000.00000000.0000RRRR.RRRRRRRR.BBBCCCCB.CCSSSSSS # mapping memory address to dram model {dramid@<start bit>;<memory address map>}
-gpgpu_mem_addr_test                    0 # run sweep test to check address mapping for aliased address
-gpgpu_mem_address_mask                    1 # 0 = old addressing mask, 1 = new addressing mask, 2 = new add. mask + flipped bank sel and chip sel bits
-gpuwattch_xml_file  gpuwattch_gtx480.xml # GPUWattch XML file
-power_simulation_enabled                    0 # Turn on power simulator (1=On, 0=Off)
-power_per_cycle_dump                    0 # Dump detailed power output each cycle
-power_trace_enabled                    0 # produce a file for the power trace (1=On, 0=Off)
-power_trace_zlevel                     6 # Compression level of the power trace output log (0=no comp, 9=highest)
-steady_power_levels_enabled                    0 # produce a file for the steady power levels (1=On, 0=Off)
-steady_state_definition                  8:4 # allowed deviation:number of samples
-gpgpu_max_cycle                        0 # terminates gpu simulation early (0 = no limit)
-gpgpu_max_insn                         0 # terminates gpu simulation early (0 = no limit)
-gpgpu_max_cta                          0 # terminates gpu simulation early (0 = no limit)
-gpgpu_runtime_stat                   500 # display runtime statistics such as dram utilization {<freq>:<flag>}
-liveness_message_freq                    1 # Minimum number of seconds between simulation liveness messages (0 = always print)
-gpgpu_flush_l1_cache                    0 # Flush L1 cache at the end of each kernel call
-gpgpu_flush_l2_cache                    0 # Flush L2 cache at the end of each kernel call
-gpgpu_deadlock_detect                    1 # Stop the simulation at deadlock (1=on (default), 0=off)
-gpgpu_ptx_instruction_classification                    0 # if enabled will classify ptx instruction types per kernel (Max 255 kernels now)
-gpgpu_ptx_sim_mode                     0 # Select between Performance (default) or Functional simulation (1)
-gpgpu_clock_domains 700.0:700.0:700.0:924.0 # Clock Domain Frequencies in MhZ {<Core Clock>:<ICNT Clock>:<L2 Clock>:<DRAM Clock>}
-gpgpu_max_concurrent_kernel                    8 # maximum kernels that can run concurrently on GPU
-gpgpu_cflog_interval                    0 # Interval between each snapshot in control flow logger
-visualizer_enabled                     0 # Turn on visualizer output (1=On, 0=Off)
-visualizer_outputfile                 NULL # Specifies the output log file for visualizer
-visualizer_zlevel                      6 # Compression level of the visualizer output log (0=no comp, 9=highest)
-trace_enabled                          0 # Turn on traces
-trace_components                    none # comma seperated list of traces to enable. Complete list found in trace_streams.tup. Default none
-trace_sampling_core                    0 # The core which is printed using CORE_DPRINTF. Default 0
-trace_sampling_memory_partition                   -1 # The memory partition which is printed using MEMPART_DPRINTF. Default -1 (i.e. all)
-enable_ptx_file_line_stats                    1 # Turn on PTX source line statistic profiling. (1 = On)
-ptx_line_stats_filename gpgpu_inst_stats.txt # Output file for PTX source line statistics.
-save_embedded_ptx                      0 # saves ptx files embedded in binary as <n>.ptx
-keep                                   0 # keep intermediate files created by GPGPU-Sim when interfacing with external programs
-gpgpu_ptx_save_converted_ptxplus                    0 # Saved converted ptxplus to a file
-ptx_opcode_latency_int         4,13,4,5,145 # Opcode latencies for integers <ADD,MAX,MUL,MAD,DIV>Default 1,1,19,25,145
-ptx_opcode_latency_fp          4,13,4,5,39 # Opcode latencies for single precision floating points <ADD,MAX,MUL,MAD,DIV>Default 1,1,1,1,30
-ptx_opcode_latency_dp         8,19,8,8,330 # Opcode latencies for double precision floating points <ADD,MAX,MUL,MAD,DIV>Default 8,8,8,8,335
-ptx_opcode_initiation_int            1,2,2,1,8 # Opcode initiation intervals for integers <ADD,MAX,MUL,MAD,DIV>Default 1,1,4,4,32
-ptx_opcode_initiation_fp            1,2,1,1,4 # Opcode initiation intervals for single precision floating points <ADD,MAX,MUL,MAD,DIV>Default 1,1,1,1,5
-ptx_opcode_initiation_dp         8,16,8,8,130 # Opcode initiation intervals for double precision floating points <ADD,MAX,MUL,MAD,DIV>Default 8,8,8,8,130
DRAM Timing Options:
nbk                                    16 # number of banks
CCD                                     2 # column to column delay
RRD                                     6 # minimal delay between activation of rows in different banks
RCD                                    12 # row to column delay
RAS                                    28 # time needed to activate row
RP                                     12 # time needed to precharge (deactivate) row
RC                                     40 # row cycle time
CDLR                                    5 # switching from write to read (changes tWTR)
WR                                     12 # last data-in to row precharge
CL                                     12 # CAS latency
WL                                      4 # Write latency
nbkgrp                                  4 # number of bank groups
CCDL                                    3 # column to column delay between accesses to different bank groups
RTPL                                    2 # read to precharge delay between accesses to different bank groups
Total number of memory sub partition = 12
addr_dec_mask[CHIP]  = 0000000000000000 	high:64 low:0
addr_dec_mask[BK]    = 000000000000e100 	high:16 low:8
addr_dec_mask[ROW]   = 000000000fff0000 	high:28 low:16
addr_dec_mask[COL]   = 0000000000001eff 	high:13 low:0
addr_dec_mask[BURST] = 000000000000003f 	high:6 low:0
sub_partition_id_mask = 0000000000000100
GPGPU-Sim uArch: clock freqs: 700000000.000000:700000000.000000:700000000.000000:924000000.000000
GPGPU-Sim uArch: clock periods: 0.00000000142857142857:0.00000000142857142857:0.00000000142857142857:0.00000000108225108225
*** Initializing Memory Statistics ***
GPGPU-Sim uArch: interconnect node map (shaderID+MemID to icntID)
GPGPU-Sim uArch: Memory nodes ID start from index: 15
GPGPU-Sim uArch:    0   1   2   3   4
GPGPU-Sim uArch:    5   6   7   8   9
GPGPU-Sim uArch:   10  11  12  13  14
GPGPU-Sim uArch:   15  16  17  18  19
GPGPU-Sim uArch:   20  21  22  23  24
GPGPU-Sim uArch:   25  26
GPGPU-Sim uArch: interconnect node reverse map (icntID to shaderID+MemID)
GPGPU-Sim uArch: Memory nodes start from ID: 15
GPGPU-Sim uArch:    0   1   2   3   4
GPGPU-Sim uArch:    5   6   7   8   9
GPGPU-Sim uArch:   10  11  12  13  14
GPGPU-Sim uArch:   15  16  17  18  19
GPGPU-Sim uArch:   20  21  22  23  24
GPGPU-Sim uArch:   25  26
e389dacb331e7fcddf4abf4a164344f1  /sciclone/data20/adwait/applications/benchmarks/CUDA/BlackScholes/gpgpu_ptx_sim__BlackScholes
GPGPU-Sim uArch: performance model initialization complete.
GPGPU-Sim PTX: __cudaRegisterFatBinary, fat_cubin_handle = 1, filename=BlackScholes.cu
self exe links to: /sciclone/data20/adwait/applications/benchmarks/CUDA/BlackScholes/gpgpu_ptx_sim__BlackScholes
Running md5sum using "md5sum /sciclone/data20/adwait/applications/benchmarks/CUDA/BlackScholes/gpgpu_ptx_sim__BlackScholes "
Parsing file _cuobjdump_complete_output_P24xyR
######### cuobjdump parser ########
## Adding new section ELF
Adding arch: sm_20
Adding identifier: BlackScholes.cu
## Adding new section PTX
Adding ptx filename: _cuobjdump_1.ptx
Adding arch: sm_20
Adding identifier: BlackScholes.cu
Done parsing!!!
GPGPU-Sim PTX: __cudaRegisterFunction _Z15BlackScholesGPUPfS_S_S_S_ffi : hostFun 0x0x405752, fat_cubin_handle = 1
GPGPU-Sim PTX: instruction assembly for function '_Z15BlackScholesGPUPfS_S_S_S_ffi'...   done.
GPGPU-Sim PTX: finding reconvergence points for '_Z15BlackScholesGPUPfS_S_S_S_ffi'...
GPGPU-Sim PTX: Finding dominators for '_Z15BlackScholesGPUPfS_S_S_S_ffi'...
GPGPU-Sim PTX: Finding immediate dominators for '_Z15BlackScholesGPUPfS_S_S_S_ffi'...
GPGPU-Sim PTX: Finding postdominators for '_Z15BlackScholesGPUPfS_S_S_S_ffi'...
GPGPU-Sim PTX: Finding immediate postdominators for '_Z15BlackScholesGPUPfS_S_S_S_ffi'...
GPGPU-Sim PTX: pre-decoding instructions for '_Z15BlackScholesGPUPfS_S_S_S_ffi'...
GPGPU-Sim PTX: reconvergence points for _Z15BlackScholesGPUPfS_S_S_S_ffi...
GPGPU-Sim PTX:  1 (potential) branch divergence @  PC=0x040 (_1.ptx:76) @%p1 bra $Lt_0_2818;
GPGPU-Sim PTX:    immediate post dominator      @  PC=0x3f8 (_1.ptx:200) exit;
GPGPU-Sim PTX:  2 (potential) branch divergence @  PC=0x3f0 (_1.ptx:197) @%p4 bra $Lt_0_3330;
GPGPU-Sim PTX:    immediate post dominator      @  PC=0x3f8 (_1.ptx:200) exit;
GPGPU-Sim PTX: ... end of reconvergence points for _Z15BlackScholesGPUPfS_S_S_S_ffi
GPGPU-Sim PTX: ... done pre-decoding instructions for '_Z15BlackScholesGPUPfS_S_S_S_ffi'.
GPGPU-Sim PTX: finished parsing EMBEDDED .ptx file _1.ptx
Adding _cuobjdump_1.ptx with cubin handle 1
GPGPU-Sim PTX: extracting embedded .ptx to temporary file "_ptx_ny03Zy"
Running: cat _ptx_ny03Zy | sed 's/.version 1.5/.version 1.4/' | sed 's/, texmode_independent//' | sed 's/\(\.extern \.const\[1\] .b8 \w\+\)\[\]/\1\[1\]/' | sed 's/const\[.\]/const\[0\]/g' > _ptx2_pFYCWg
GPGPU-Sim PTX: generating ptxinfo using "$CUDA_INSTALL_PATH/bin/ptxas --gpu-name=sm_20 -v _ptx2_pFYCWg --output-file  /dev/null 2> _ptx_ny03Zyinfo"
GPGPU-Sim PTX: Kernel '_Z15BlackScholesGPUPfS_S_S_S_ffi' : regs=31, lmem=0, smem=0, cmem=128
GPGPU-Sim PTX: removing ptxinfo using "rm -f _ptx_ny03Zy _ptx2_pFYCWg _ptx_ny03Zyinfo"
GPGPU-Sim PTX: loading globals with explicit initializers... 
GPGPU-Sim PTX: finished loading globals (0 bytes total).
GPGPU-Sim PTX: loading constants with explicit initializers...  done.
Initializing data...
...allocating CPU memory for options.
...allocating GPU memory for options.
...generating input data in CPU mem.
...copying input data to GPU mem.
Data init done.
Executing Black-Scholes GPU kernel (1 iterations)...
GPGPU-Sim: synchronize waiting for inactive GPU simulation
GPGPU-Sim API: Stream Manager State
GPGPU-Sim: detected inactive GPU simulation thread

GPGPU-Sim PTX: cudaLaunch for 0x0x405752 (mode=performance simulation) on stream 0
GPGPU-Sim PTX: pushing kernel '_Z15BlackScholesGPUPfS_S_S_S_ffi' to stream 0, gridDim= (480,1,1) blockDim = (128,1,1) 
kernel '_Z15BlackScholesGPUPfS_S_S_S_ffi' transfer to GPU hardware scheduler
GPGPU-Sim uArch: Shader 1 bind to kernel 1 '_Z15BlackScholesGPUPfS_S_S_S_ffi'
GPGPU-Sim uArch: CTA/core = 8, limited by: regs cta_limit
GPGPU-Sim uArch: core:  1, cta: 0 initialized @(1,0)
GPGPU-Sim uArch: Shader 2 bind to kernel 1 '_Z15BlackScholesGPUPfS_S_S_S_ffi'
GPGPU-Sim uArch: core:  2, cta: 0 initialized @(1,0)
GPGPU-Sim uArch: Shader 3 bind to kernel 1 '_Z15BlackScholesGPUPfS_S_S_S_ffi'
GPGPU-Sim uArch: core:  3, cta: 0 initialized @(1,0)
GPGPU-Sim uArch: Shader 4 bind to kernel 1 '_Z15BlackScholesGPUPfS_S_S_S_ffi'
GPGPU-Sim uArch: core:  4, cta: 0 initialized @(1,0)
GPGPU-Sim uArch: Shader 5 bind to kernel 1 '_Z15BlackScholesGPUPfS_S_S_S_ffi'
GPGPU-Sim uArch: core:  5, cta: 0 initialized @(1,0)
GPGPU-Sim uArch: Shader 6 bind to kernel 1 '_Z15BlackScholesGPUPfS_S_S_S_ffi'
GPGPU-Sim uArch: core:  6, cta: 0 initialized @(1,0)
GPGPU-Sim uArch: Shader 7 bind to kernel 1 '_Z15BlackScholesGPUPfS_S_S_S_ffi'
GPGPU-Sim uArch: core:  7, cta: 0 initialized @(1,0)
GPGPU-Sim uArch: Shader 8 bind to kernel 1 '_Z15BlackScholesGPUPfS_S_S_S_ffi'
GPGPU-Sim uArch: core:  8, cta: 0 initialized @(1,0)
GPGPU-Sim uArch: Shader 9 bind to kernel 1 '_Z15BlackScholesGPUPfS_S_S_S_ffi'
GPGPU-Sim uArch: core:  9, cta: 0 initialized @(1,0)
GPGPU-Sim uArch: Shader 10 bind to kernel 1 '_Z15BlackScholesGPUPfS_S_S_S_ffi'
GPGPU-Sim uArch: core: 10, cta: 0 initialized @(1,0)
GPGPU-Sim uArch: Shader 11 bind to kernel 1 '_Z15BlackScholesGPUPfS_S_S_S_ffi'
GPGPU-Sim uArch: core: 11, cta: 0 initialized @(1,0)
GPGPU-Sim uArch: Shader 12 bind to kernel 1 '_Z15BlackScholesGPUPfS_S_S_S_ffi'
GPGPU-Sim uArch: core: 12, cta: 0 initialized @(1,0)
GPGPU-Sim uArch: Shader 13 bind to kernel 1 '_Z15BlackScholesGPUPfS_S_S_S_ffi'
GPGPU-Sim uArch: core: 13, cta: 0 initialized @(1,0)
GPGPU-Sim uArch: Shader 14 bind to kernel 1 '_Z15BlackScholesGPUPfS_S_S_S_ffi'
GPGPU-Sim uArch: core: 14, cta: 0 initialized @(1,0)
GPGPU-Sim uArch: Shader 0 bind to kernel 1 '_Z15BlackScholesGPUPfS_S_S_S_ffi'
GPGPU-Sim uArch: core:  0, cta: 0 initialized @(1,0)
GPGPU-Sim uArch: core:  1, cta: 1 initialized @(2,0)
GPGPU-Sim uArch: core:  2, cta: 1 initialized @(2,0)
GPGPU-Sim uArch: core:  3, cta: 1 initialized @(2,0)
GPGPU-Sim uArch: core:  4, cta: 1 initialized @(2,0)
GPGPU-Sim uArch: core:  5, cta: 1 initialized @(2,0)
GPGPU-Sim uArch: core:  6, cta: 1 initialized @(2,0)
GPGPU-Sim uArch: core:  7, cta: 1 initialized @(2,0)
GPGPU-Sim uArch: core:  8, cta: 1 initialized @(2,0)
GPGPU-Sim uArch: core:  9, cta: 1 initialized @(2,0)
GPGPU-Sim uArch: core: 10, cta: 1 initialized @(2,0)
GPGPU-Sim uArch: core: 11, cta: 1 initialized @(2,0)
GPGPU-Sim uArch: core: 12, cta: 1 initialized @(2,0)
GPGPU-Sim uArch: core: 13, cta: 1 initialized @(2,0)
GPGPU-Sim uArch: core: 14, cta: 1 initialized @(2,0)
GPGPU-Sim uArch: core:  0, cta: 1 initialized @(2,0)
GPGPU-Sim uArch: core:  1, cta: 2 initialized @(3,0)
GPGPU-Sim uArch: core:  2, cta: 2 initialized @(3,0)
GPGPU-Sim uArch: core:  3, cta: 2 initialized @(3,0)
GPGPU-Sim uArch: core:  4, cta: 2 initialized @(3,0)
GPGPU-Sim uArch: core:  5, cta: 2 initialized @(3,0)
GPGPU-Sim uArch: core:  6, cta: 2 initialized @(3,0)
GPGPU-Sim uArch: core:  7, cta: 2 initialized @(3,0)
GPGPU-Sim uArch: core:  8, cta: 2 initialized @(3,0)
GPGPU-Sim uArch: core:  9, cta: 2 initialized @(3,0)
GPGPU-Sim uArch: core: 10, cta: 2 initialized @(3,0)
GPGPU-Sim uArch: core: 11, cta: 2 initialized @(3,0)
GPGPU-Sim uArch: core: 12, cta: 2 initialized @(3,0)
GPGPU-Sim uArch: core: 13, cta: 2 initialized @(3,0)
GPGPU-Sim uArch: core: 14, cta: 2 initialized @(3,0)
GPGPU-Sim uArch: core:  0, cta: 2 initialized @(3,0)
GPGPU-Sim uArch: core:  1, cta: 3 initialized @(4,0)
GPGPU-Sim uArch: core:  2, cta: 3 initialized @(4,0)
GPGPU-Sim uArch: core:  3, cta: 3 initialized @(4,0)
GPGPU-Sim uArch: core:  4, cta: 3 initialized @(4,0)
GPGPU-Sim uArch: core:  5, cta: 3 initialized @(4,0)
GPGPU-Sim uArch: core:  6, cta: 3 initialized @(4,0)
GPGPU-Sim uArch: core:  7, cta: 3 initialized @(4,0)
GPGPU-Sim uArch: core:  8, cta: 3 initialized @(4,0)
GPGPU-Sim uArch: core:  9, cta: 3 initialized @(4,0)
GPGPU-Sim uArch: core: 10, cta: 3 initialized @(4,0)
GPGPU-Sim uArch: core: 11, cta: 3 initialized @(4,0)
GPGPU-Sim uArch: core: 12, cta: 3 initialized @(4,0)
GPGPU-Sim uArch: core: 13, cta: 3 initialized @(4,0)
GPGPU-Sim uArch: core: 14, cta: 3 initialized @(4,0)
GPGPU-Sim uArch: core:  0, cta: 3 initialized @(4,0)
GPGPU-Sim uArch: core:  1, cta: 4 initialized @(5,0)
GPGPU-Sim uArch: core:  2, cta: 4 initialized @(5,0)
GPGPU-Sim uArch: core:  3, cta: 4 initialized @(5,0)
GPGPU-Sim uArch: core:  4, cta: 4 initialized @(5,0)
GPGPU-Sim uArch: core:  5, cta: 4 initialized @(5,0)
GPGPU-Sim uArch: core:  6, cta: 4 initialized @(5,0)
GPGPU-Sim uArch: core:  7, cta: 4 initialized @(5,0)
GPGPU-Sim uArch: core:  8, cta: 4 initialized @(5,0)
GPGPU-Sim uArch: core:  9, cta: 4 initialized @(5,0)
GPGPU-Sim uArch: core: 10, cta: 4 initialized @(5,0)
GPGPU-Sim uArch: core: 11, cta: 4 initialized @(5,0)
GPGPU-Sim uArch: core: 12, cta: 4 initialized @(5,0)
GPGPU-Sim uArch: core: 13, cta: 4 initialized @(5,0)
GPGPU-Sim uArch: core: 14, cta: 4 initialized @(5,0)
GPGPU-Sim uArch: core:  0, cta: 4 initialized @(5,0)
GPGPU-Sim uArch: core:  1, cta: 5 initialized @(6,0)
GPGPU-Sim uArch: core:  2, cta: 5 initialized @(6,0)
GPGPU-Sim uArch: core:  3, cta: 5 initialized @(6,0)
GPGPU-Sim uArch: core:  4, cta: 5 initialized @(6,0)
GPGPU-Sim uArch: core:  5, cta: 5 initialized @(6,0)
GPGPU-Sim uArch: core:  6, cta: 5 initialized @(6,0)
GPGPU-Sim uArch: core:  7, cta: 5 initialized @(6,0)
GPGPU-Sim uArch: core:  8, cta: 5 initialized @(6,0)
GPGPU-Sim uArch: core:  9, cta: 5 initialized @(6,0)
GPGPU-Sim uArch: core: 10, cta: 5 initialized @(6,0)
GPGPU-Sim uArch: core: 11, cta: 5 initialized @(6,0)
GPGPU-Sim uArch: core: 12, cta: 5 initialized @(6,0)
GPGPU-Sim uArch: core: 13, cta: 5 initialized @(6,0)
GPGPU-Sim uArch: core: 14, cta: 5 initialized @(6,0)
GPGPU-Sim uArch: core:  0, cta: 5 initialized @(6,0)
GPGPU-Sim uArch: core:  1, cta: 6 initialized @(7,0)
GPGPU-Sim uArch: core:  2, cta: 6 initialized @(7,0)
GPGPU-Sim uArch: core:  3, cta: 6 initialized @(7,0)
GPGPU-Sim uArch: core:  4, cta: 6 initialized @(7,0)
GPGPU-Sim uArch: core:  5, cta: 6 initialized @(7,0)
GPGPU-Sim uArch: core:  6, cta: 6 initialized @(7,0)
GPGPU-Sim uArch: core:  7, cta: 6 initialized @(7,0)
GPGPU-Sim uArch: core:  8, cta: 6 initialized @(7,0)
GPGPU-Sim uArch: core:  9, cta: 6 initialized @(7,0)
GPGPU-Sim uArch: core: 10, cta: 6 initialized @(7,0)
GPGPU-Sim uArch: core: 11, cta: 6 initialized @(7,0)
GPGPU-Sim uArch: core: 12, cta: 6 initialized @(7,0)
GPGPU-Sim uArch: core: 13, cta: 6 initialized @(7,0)
GPGPU-Sim uArch: core: 14, cta: 6 initialized @(7,0)
GPGPU-Sim uArch: core:  0, cta: 6 initialized @(7,0)
GPGPU-Sim uArch: core:  1, cta: 7 initialized @(8,0)
GPGPU-Sim uArch: core:  2, cta: 7 initialized @(8,0)
GPGPU-Sim uArch: core:  3, cta: 7 initialized @(8,0)
GPGPU-Sim uArch: core:  4, cta: 7 initialized @(8,0)
GPGPU-Sim uArch: core:  5, cta: 7 initialized @(8,0)
GPGPU-Sim uArch: core:  6, cta: 7 initialized @(8,0)
GPGPU-Sim uArch: core:  7, cta: 7 initialized @(8,0)
GPGPU-Sim uArch: core:  8, cta: 7 initialized @(8,0)
GPGPU-Sim uArch: core:  9, cta: 7 initialized @(8,0)
GPGPU-Sim uArch: core: 10, cta: 7 initialized @(8,0)
GPGPU-Sim uArch: core: 11, cta: 7 initialized @(8,0)
GPGPU-Sim uArch: core: 12, cta: 7 initialized @(8,0)
GPGPU-Sim uArch: core: 13, cta: 7 initialized @(8,0)
GPGPU-Sim uArch: core: 14, cta: 7 initialized @(8,0)
GPGPU-Sim uArch: core:  0, cta: 7 initialized @(8,0)
GPGPU-Sim PTX: 100000 instructions simulated : ctaid=(27,0,0) tid=(95,0,0)
GPGPU-Sim uArch: cycles simulated: 500  inst.: 92160 (ipc=184.3) sim_rate=46080 (inst/sec) elapsed = 0:0:00:02 / Sun Feb 28 21:30:19 2016
GPGPU-Sim PTX: 200000 instructions simulated : ctaid=(94,0,0) tid=(95,0,0)
GPGPU-Sim PTX: 300000 instructions simulated : ctaid=(53,0,0) tid=(127,0,0)
GPGPU-Sim PTX: 400000 instructions simulated : ctaid=(70,0,0) tid=(127,0,0)
GPGPU-Sim PTX: 500000 instructions simulated : ctaid=(33,0,0) tid=(31,0,0)
GPGPU-Sim PTX: 600000 instructions simulated : ctaid=(98,0,0) tid=(31,0,0)
GPGPU-Sim uArch: cycles simulated: 2500  inst.: 608160 (ipc=243.3) sim_rate=202720 (inst/sec) elapsed = 0:0:00:03 / Sun Feb 28 21:30:20 2016
GPGPU-Sim PTX: 700000 instructions simulated : ctaid=(75,0,0) tid=(31,0,0)
GPGPU-Sim PTX: 800000 instructions simulated : ctaid=(88,0,0) tid=(95,0,0)
GPGPU-Sim PTX: 900000 instructions simulated : ctaid=(25,0,0) tid=(127,0,0)
GPGPU-Sim PTX: 1000000 instructions simulated : ctaid=(12,0,0) tid=(95,0,0)
GPGPU-Sim PTX: 1100000 instructions simulated : ctaid=(80,0,0) tid=(31,0,0)
GPGPU-Sim uArch: cycles simulated: 3500  inst.: 1149888 (ipc=328.5) sim_rate=287472 (inst/sec) elapsed = 0:0:00:04 / Sun Feb 28 21:30:21 2016
GPGPU-Sim PTX: 1200000 instructions simulated : ctaid=(12,0,0) tid=(31,0,0)
GPGPU-Sim PTX: 1300000 instructions simulated : ctaid=(50,0,0) tid=(127,0,0)
GPGPU-Sim PTX: 1400000 instructions simulated : ctaid=(92,0,0) tid=(95,0,0)
GPGPU-Sim PTX: 1500000 instructions simulated : ctaid=(54,0,0) tid=(95,0,0)
GPGPU-Sim uArch: cycles simulated: 4000  inst.: 1549184 (ipc=387.3) sim_rate=309836 (inst/sec) elapsed = 0:0:00:05 / Sun Feb 28 21:30:22 2016
GPGPU-Sim PTX: 1600000 instructions simulated : ctaid=(90,0,0) tid=(95,0,0)
GPGPU-Sim PTX: 1700000 instructions simulated : ctaid=(66,0,0) tid=(127,0,0)
GPGPU-Sim PTX: 1800000 instructions simulated : ctaid=(113,0,0) tid=(127,0,0)
GPGPU-Sim PTX: 1900000 instructions simulated : ctaid=(81,0,0) tid=(95,0,0)
GPGPU-Sim PTX: 2000000 instructions simulated : ctaid=(6,0,0) tid=(127,0,0)
GPGPU-Sim PTX: 2100000 instructions simulated : ctaid=(7,0,0) tid=(31,0,0)
GPGPU-Sim uArch: cycles simulated: 5500  inst.: 2108256 (ipc=383.3) sim_rate=351376 (inst/sec) elapsed = 0:0:00:06 / Sun Feb 28 21:30:23 2016
GPGPU-Sim PTX: 2200000 instructions simulated : ctaid=(6,0,0) tid=(31,0,0)
GPGPU-Sim PTX: 2300000 instructions simulated : ctaid=(14,0,0) tid=(63,0,0)
GPGPU-Sim PTX: 2400000 instructions simulated : ctaid=(40,0,0) tid=(31,0,0)
GPGPU-Sim PTX: 2500000 instructions simulated : ctaid=(91,0,0) tid=(127,0,0)
GPGPU-Sim PTX: 2600000 instructions simulated : ctaid=(93,0,0) tid=(31,0,0)
GPGPU-Sim PTX: 2700000 instructions simulated : ctaid=(82,0,0) tid=(95,0,0)
GPGPU-Sim PTX: 2800000 instructions simulated : ctaid=(36,0,0) tid=(127,0,0)
GPGPU-Sim uArch: cycles simulated: 6500  inst.: 2788032 (ipc=428.9) sim_rate=398290 (inst/sec) elapsed = 0:0:00:07 / Sun Feb 28 21:30:24 2016
GPGPU-Sim PTX: 2900000 instructions simulated : ctaid=(58,0,0) tid=(63,0,0)
GPGPU-Sim PTX: 3000000 instructions simulated : ctaid=(63,0,0) tid=(127,0,0)
GPGPU-Sim PTX: 3100000 instructions simulated : ctaid=(54,0,0) tid=(63,0,0)
GPGPU-Sim uArch: cycles simulated: 7000  inst.: 3092256 (ipc=441.8) sim_rate=386532 (inst/sec) elapsed = 0:0:00:08 / Sun Feb 28 21:30:25 2016
GPGPU-Sim PTX: 3200000 instructions simulated : ctaid=(19,0,0) tid=(63,0,0)
GPGPU-Sim PTX: 3300000 instructions simulated : ctaid=(24,0,0) tid=(31,0,0)
GPGPU-Sim PTX: 3400000 instructions simulated : ctaid=(11,0,0) tid=(127,0,0)
GPGPU-Sim PTX: 3500000 instructions simulated : ctaid=(8,0,0) tid=(31,0,0)
GPGPU-Sim PTX: 3600000 instructions simulated : ctaid=(25,0,0) tid=(63,0,0)
GPGPU-Sim uArch: cycles simulated: 8000  inst.: 3640128 (ipc=455.0) sim_rate=404458 (inst/sec) elapsed = 0:0:00:09 / Sun Feb 28 21:30:26 2016
GPGPU-Sim PTX: 3700000 instructions simulated : ctaid=(39,0,0) tid=(95,0,0)
GPGPU-Sim PTX: 3800000 instructions simulated : ctaid=(17,0,0) tid=(127,0,0)
GPGPU-Sim PTX: 3900000 instructions simulated : ctaid=(34,0,0) tid=(31,0,0)
GPGPU-Sim PTX: 4000000 instructions simulated : ctaid=(116,0,0) tid=(31,0,0)
GPGPU-Sim PTX: 4100000 instructions simulated : ctaid=(13,0,0) tid=(31,0,0)
GPGPU-Sim PTX: 4200000 instructions simulated : ctaid=(6,0,0) tid=(31,0,0)
GPGPU-Sim uArch: cycles simulated: 9000  inst.: 4188704 (ipc=465.4) sim_rate=418870 (inst/sec) elapsed = 0:0:00:10 / Sun Feb 28 21:30:27 2016
GPGPU-Sim PTX: 4300000 instructions simulated : ctaid=(86,0,0) tid=(95,0,0)
GPGPU-Sim PTX: 4400000 instructions simulated : ctaid=(7,0,0) tid=(127,0,0)
GPGPU-Sim PTX: 4500000 instructions simulated : ctaid=(91,0,0) tid=(63,0,0)
GPGPU-Sim PTX: 4600000 instructions simulated : ctaid=(21,0,0) tid=(31,0,0)
GPGPU-Sim PTX: 4700000 instructions simulated : ctaid=(37,0,0) tid=(31,0,0)
GPGPU-Sim PTX: 4800000 instructions simulated : ctaid=(12,0,0) tid=(127,0,0)
GPGPU-Sim uArch: cycles simulated: 10000  inst.: 4777632 (ipc=477.8) sim_rate=434330 (inst/sec) elapsed = 0:0:00:11 / Sun Feb 28 21:30:28 2016
GPGPU-Sim PTX: 4900000 instructions simulated : ctaid=(44,0,0) tid=(127,0,0)
GPGPU-Sim PTX: 5000000 instructions simulated : ctaid=(40,0,0) tid=(63,0,0)
GPGPU-Sim PTX: 5100000 instructions simulated : ctaid=(41,0,0) tid=(127,0,0)
GPGPU-Sim PTX: 5200000 instructions simulated : ctaid=(56,0,0) tid=(95,0,0)
GPGPU-Sim PTX: 5300000 instructions simulated : ctaid=(68,0,0) tid=(31,0,0)
GPGPU-Sim PTX: 5400000 instructions simulated : ctaid=(14,0,0) tid=(31,0,0)
GPGPU-Sim uArch: cycles simulated: 11000  inst.: 5365376 (ipc=487.8) sim_rate=447114 (inst/sec) elapsed = 0:0:00:12 / Sun Feb 28 21:30:29 2016
GPGPU-Sim PTX: 5500000 instructions simulated : ctaid=(23,0,0) tid=(31,0,0)
GPGPU-Sim PTX: 5600000 instructions simulated : ctaid=(35,0,0) tid=(63,0,0)
GPGPU-Sim PTX: 5700000 instructions simulated : ctaid=(11,0,0) tid=(63,0,0)
GPGPU-Sim PTX: 5800000 instructions simulated : ctaid=(56,0,0) tid=(63,0,0)
GPGPU-Sim PTX: 5900000 instructions simulated : ctaid=(33,0,0) tid=(127,0,0)
GPGPU-Sim PTX: 6000000 instructions simulated : ctaid=(21,0,0) tid=(63,0,0)
GPGPU-Sim uArch: cycles simulated: 12000  inst.: 5968352 (ipc=497.4) sim_rate=459104 (inst/sec) elapsed = 0:0:00:13 / Sun Feb 28 21:30:30 2016
GPGPU-Sim PTX: 6100000 instructions simulated : ctaid=(51,0,0) tid=(127,0,0)
GPGPU-Sim PTX: 6200000 instructions simulated : ctaid=(36,0,0) tid=(127,0,0)
GPGPU-Sim PTX: 6300000 instructions simulated : ctaid=(66,0,0) tid=(63,0,0)
GPGPU-Sim uArch: cycles simulated: 12500  inst.: 6268160 (ipc=501.5) sim_rate=447725 (inst/sec) elapsed = 0:0:00:14 / Sun Feb 28 21:30:31 2016
GPGPU-Sim PTX: 6400000 instructions simulated : ctaid=(71,0,0) tid=(95,0,0)
GPGPU-Sim PTX: 6500000 instructions simulated : ctaid=(21,0,0) tid=(95,0,0)
GPGPU-Sim PTX: 6600000 instructions simulated : ctaid=(111,0,0) tid=(127,0,0)
GPGPU-Sim PTX: 6700000 instructions simulated : ctaid=(71,0,0) tid=(95,0,0)
GPGPU-Sim PTX: 6800000 instructions simulated : ctaid=(8,0,0) tid=(95,0,0)
GPGPU-Sim PTX: 6900000 instructions simulated : ctaid=(11,0,0) tid=(95,0,0)
GPGPU-Sim uArch: cycles simulated: 13500  inst.: 6882880 (ipc=509.8) sim_rate=458858 (inst/sec) elapsed = 0:0:00:15 / Sun Feb 28 21:30:32 2016
GPGPU-Sim PTX: 7000000 instructions simulated : ctaid=(50,0,0) tid=(31,0,0)
GPGPU-Sim PTX: 7100000 instructions simulated : ctaid=(45,0,0) tid=(95,0,0)
GPGPU-Sim PTX: 7200000 instructions simulated : ctaid=(14,0,0) tid=(63,0,0)
GPGPU-Sim PTX: 7300000 instructions simulated : ctaid=(87,0,0) tid=(31,0,0)
GPGPU-Sim PTX: 7400000 instructions simulated : ctaid=(8,0,0) tid=(63,0,0)
GPGPU-Sim PTX: 7500000 instructions simulated : ctaid=(1,0,0) tid=(127,0,0)
GPGPU-Sim uArch: cycles simulated: 14500  inst.: 7495040 (ipc=516.9) sim_rate=468440 (inst/sec) elapsed = 0:0:00:16 / Sun Feb 28 21:30:33 2016
GPGPU-Sim PTX: 7600000 instructions simulated : ctaid=(31,0,0) tid=(127,0,0)
GPGPU-Sim PTX: 7700000 instructions simulated : ctaid=(42,0,0) tid=(127,0,0)
GPGPU-Sim PTX: 7800000 instructions simulated : ctaid=(35,0,0) tid=(127,0,0)
GPGPU-Sim PTX: 7900000 instructions simulated : ctaid=(43,0,0) tid=(31,0,0)
GPGPU-Sim PTX: 8000000 instructions simulated : ctaid=(56,0,0) tid=(127,0,0)
GPGPU-Sim PTX: 8100000 instructions simulated : ctaid=(13,0,0) tid=(63,0,0)
GPGPU-Sim uArch: cycles simulated: 15500  inst.: 8109792 (ipc=523.2) sim_rate=477046 (inst/sec) elapsed = 0:0:00:17 / Sun Feb 28 21:30:34 2016
GPGPU-Sim PTX: 8200000 instructions simulated : ctaid=(42,0,0) tid=(95,0,0)
GPGPU-Sim PTX: 8300000 instructions simulated : ctaid=(15,0,0) tid=(63,0,0)
GPGPU-Sim PTX: 8400000 instructions simulated : ctaid=(60,0,0) tid=(95,0,0)
GPGPU-Sim PTX: 8500000 instructions simulated : ctaid=(14,0,0) tid=(31,0,0)
GPGPU-Sim PTX: 8600000 instructions simulated : ctaid=(39,0,0) tid=(127,0,0)
GPGPU-Sim PTX: 8700000 instructions simulated : ctaid=(20,0,0) tid=(95,0,0)
GPGPU-Sim uArch: cycles simulated: 16500  inst.: 8727552 (ipc=528.9) sim_rate=484864 (inst/sec) elapsed = 0:0:00:18 / Sun Feb 28 21:30:35 2016
GPGPU-Sim PTX: 8800000 instructions simulated : ctaid=(62,0,0) tid=(63,0,0)
GPGPU-Sim PTX: 8900000 instructions simulated : ctaid=(3,0,0) tid=(127,0,0)
GPGPU-Sim PTX: 9000000 instructions simulated : ctaid=(3,0,0) tid=(127,0,0)
GPGPU-Sim uArch: cycles simulated: 17000  inst.: 9043072 (ipc=531.9) sim_rate=475951 (inst/sec) elapsed = 0:0:00:19 / Sun Feb 28 21:30:36 2016
GPGPU-Sim PTX: 9100000 instructions simulated : ctaid=(42,0,0) tid=(95,0,0)
GPGPU-Sim PTX: 9200000 instructions simulated : ctaid=(53,0,0) tid=(63,0,0)
GPGPU-Sim PTX: 9300000 instructions simulated : ctaid=(64,0,0) tid=(127,0,0)
GPGPU-Sim PTX: 9400000 instructions simulated : ctaid=(10,0,0) tid=(31,0,0)
GPGPU-Sim PTX: 9500000 instructions simulated : ctaid=(10,0,0) tid=(127,0,0)
GPGPU-Sim PTX: 9600000 instructions simulated : ctaid=(73,0,0) tid=(63,0,0)
GPGPU-Sim uArch: cycles simulated: 18000  inst.: 9642944 (ipc=535.7) sim_rate=482147 (inst/sec) elapsed = 0:0:00:20 / Sun Feb 28 21:30:37 2016
GPGPU-Sim PTX: 9700000 instructions simulated : ctaid=(32,0,0) tid=(127,0,0)
GPGPU-Sim PTX: 9800000 instructions simulated : ctaid=(16,0,0) tid=(127,0,0)
GPGPU-Sim PTX: 9900000 instructions simulated : ctaid=(37,0,0) tid=(95,0,0)
GPGPU-Sim PTX: 10000000 instructions simulated : ctaid=(74,0,0) tid=(95,0,0)
GPGPU-Sim PTX: 10100000 instructions simulated : ctaid=(103,0,0) tid=(31,0,0)
GPGPU-Sim PTX: 10200000 instructions simulated : ctaid=(21,0,0) tid=(127,0,0)
GPGPU-Sim uArch: cycles simulated: 19000  inst.: 10219904 (ipc=537.9) sim_rate=486662 (inst/sec) elapsed = 0:0:00:21 / Sun Feb 28 21:30:38 2016
GPGPU-Sim PTX: 10300000 instructions simulated : ctaid=(34,0,0) tid=(31,0,0)
GPGPU-Sim PTX: 10400000 instructions simulated : ctaid=(0,0,0) tid=(95,0,0)
GPGPU-Sim PTX: 10500000 instructions simulated : ctaid=(24,0,0) tid=(31,0,0)
GPGPU-Sim PTX: 10600000 instructions simulated : ctaid=(28,0,0) tid=(95,0,0)
GPGPU-Sim PTX: 10700000 instructions simulated : ctaid=(59,0,0) tid=(95,0,0)
GPGPU-Sim PTX: 10800000 instructions simulated : ctaid=(12,0,0) tid=(63,0,0)
GPGPU-Sim uArch: cycles simulated: 20000  inst.: 10795872 (ipc=539.8) sim_rate=490721 (inst/sec) elapsed = 0:0:00:22 / Sun Feb 28 21:30:39 2016
GPGPU-Sim PTX: 10900000 instructions simulated : ctaid=(6,0,0) tid=(31,0,0)
GPGPU-Sim PTX: 11000000 instructions simulated : ctaid=(44,0,0) tid=(95,0,0)
GPGPU-Sim PTX: 11100000 instructions simulated : ctaid=(83,0,0) tid=(31,0,0)
GPGPU-Sim PTX: 11200000 instructions simulated : ctaid=(39,0,0) tid=(31,0,0)
GPGPU-Sim PTX: 11300000 instructions simulated : ctaid=(34,0,0) tid=(31,0,0)
GPGPU-Sim uArch: cycles simulated: 21000  inst.: 11356704 (ipc=540.8) sim_rate=493769 (inst/sec) elapsed = 0:0:00:23 / Sun Feb 28 21:30:40 2016
GPGPU-Sim PTX: 11400000 instructions simulated : ctaid=(71,0,0) tid=(95,0,0)
GPGPU-Sim PTX: 11500000 instructions simulated : ctaid=(26,0,0) tid=(63,0,0)
GPGPU-Sim PTX: 11600000 instructions simulated : ctaid=(17,0,0) tid=(127,0,0)
GPGPU-Sim PTX: 11700000 instructions simulated : ctaid=(51,0,0) tid=(63,0,0)
GPGPU-Sim PTX: 11800000 instructions simulated : ctaid=(68,0,0) tid=(63,0,0)
GPGPU-Sim PTX: 11900000 instructions simulated : ctaid=(75,0,0) tid=(127,0,0)
GPGPU-Sim PTX: 12000000 instructions simulated : ctaid=(41,0,0) tid=(63,0,0)
GPGPU-Sim uArch: cycles simulated: 22000  inst.: 11961856 (ipc=543.7) sim_rate=498410 (inst/sec) elapsed = 0:0:00:24 / Sun Feb 28 21:30:41 2016
GPGPU-Sim PTX: 12100000 instructions simulated : ctaid=(87,0,0) tid=(95,0,0)
GPGPU-Sim PTX: 12200000 instructions simulated : ctaid=(36,0,0) tid=(31,0,0)
GPGPU-Sim uArch: cycles simulated: 22500  inst.: 12254432 (ipc=544.6) sim_rate=490177 (inst/sec) elapsed = 0:0:00:25 / Sun Feb 28 21:30:42 2016
GPGPU-Sim PTX: 12300000 instructions simulated : ctaid=(15,0,0) tid=(95,0,0)
GPGPU-Sim PTX: 12400000 instructions simulated : ctaid=(72,0,0) tid=(63,0,0)
GPGPU-Sim PTX: 12500000 instructions simulated : ctaid=(49,0,0) tid=(127,0,0)
GPGPU-Sim PTX: 12600000 instructions simulated : ctaid=(14,0,0) tid=(127,0,0)
GPGPU-Sim PTX: 12700000 instructions simulated : ctaid=(8,0,0) tid=(127,0,0)
GPGPU-Sim PTX: 12800000 instructions simulated : ctaid=(22,0,0) tid=(63,0,0)
GPGPU-Sim uArch: cycles simulated: 23500  inst.: 12837376 (ipc=546.3) sim_rate=493745 (inst/sec) elapsed = 0:0:00:26 / Sun Feb 28 21:30:43 2016
GPGPU-Sim PTX: 12900000 instructions simulated : ctaid=(48,0,0) tid=(63,0,0)
GPGPU-Sim PTX: 13000000 instructions simulated : ctaid=(30,0,0) tid=(63,0,0)
GPGPU-Sim PTX: 13100000 instructions simulated : ctaid=(55,0,0) tid=(95,0,0)
GPGPU-Sim PTX: 13200000 instructions simulated : ctaid=(48,0,0) tid=(127,0,0)
GPGPU-Sim PTX: 13300000 instructions simulated : ctaid=(111,0,0) tid=(127,0,0)
GPGPU-Sim PTX: 13400000 instructions simulated : ctaid=(52,0,0) tid=(31,0,0)
GPGPU-Sim uArch: cycles simulated: 24500  inst.: 13397312 (ipc=546.8) sim_rate=496196 (inst/sec) elapsed = 0:0:00:27 / Sun Feb 28 21:30:44 2016
GPGPU-Sim PTX: 13500000 instructions simulated : ctaid=(28,0,0) tid=(127,0,0)
GPGPU-Sim PTX: 13600000 instructions simulated : ctaid=(83,0,0) tid=(31,0,0)
GPGPU-Sim PTX: 13700000 instructions simulated : ctaid=(1,0,0) tid=(95,0,0)
GPGPU-Sim PTX: 13800000 instructions simulated : ctaid=(66,0,0) tid=(31,0,0)
GPGPU-Sim PTX: 13900000 instructions simulated : ctaid=(117,0,0) tid=(95,0,0)
GPGPU-Sim PTX: 14000000 instructions simulated : ctaid=(43,0,0) tid=(127,0,0)
GPGPU-Sim uArch: cycles simulated: 25500  inst.: 13980800 (ipc=548.3) sim_rate=499314 (inst/sec) elapsed = 0:0:00:28 / Sun Feb 28 21:30:45 2016
GPGPU-Sim PTX: 14100000 instructions simulated : ctaid=(53,0,0) tid=(31,0,0)
GPGPU-Sim PTX: 14200000 instructions simulated : ctaid=(15,0,0) tid=(95,0,0)
GPGPU-Sim PTX: 14300000 instructions simulated : ctaid=(51,0,0) tid=(63,0,0)
GPGPU-Sim PTX: 14400000 instructions simulated : ctaid=(54,0,0) tid=(95,0,0)
GPGPU-Sim PTX: 14500000 instructions simulated : ctaid=(19,0,0) tid=(95,0,0)
GPGPU-Sim PTX: 14600000 instructions simulated : ctaid=(15,0,0) tid=(63,0,0)
GPGPU-Sim uArch: cycles simulated: 26500  inst.: 14584384 (ipc=550.4) sim_rate=502909 (inst/sec) elapsed = 0:0:00:29 / Sun Feb 28 21:30:46 2016
GPGPU-Sim PTX: 14700000 instructions simulated : ctaid=(65,0,0) tid=(127,0,0)
GPGPU-Sim PTX: 14800000 instructions simulated : ctaid=(82,0,0) tid=(95,0,0)
GPGPU-Sim PTX: 14900000 instructions simulated : ctaid=(13,0,0) tid=(95,0,0)
GPGPU-Sim PTX: 15000000 instructions simulated : ctaid=(12,0,0) tid=(95,0,0)
GPGPU-Sim PTX: 15100000 instructions simulated : ctaid=(87,0,0) tid=(95,0,0)
GPGPU-Sim uArch: cycles simulated: 27500  inst.: 15144608 (ipc=550.7) sim_rate=504820 (inst/sec) elapsed = 0:0:00:30 / Sun Feb 28 21:30:47 2016
GPGPU-Sim PTX: 15200000 instructions simulated : ctaid=(43,0,0) tid=(95,0,0)
GPGPU-Sim PTX: 15300000 instructions simulated : ctaid=(8,0,0) tid=(95,0,0)
GPGPU-Sim PTX: 15400000 instructions simulated : ctaid=(97,0,0) tid=(31,0,0)
GPGPU-Sim PTX: 15500000 instructions simulated : ctaid=(64,0,0) tid=(63,0,0)
GPGPU-Sim PTX: 15600000 instructions simulated : ctaid=(51,0,0) tid=(31,0,0)
GPGPU-Sim PTX: 15700000 instructions simulated : ctaid=(98,0,0) tid=(63,0,0)
GPGPU-Sim uArch: cycles simulated: 28500  inst.: 15716672 (ipc=551.5) sim_rate=506989 (inst/sec) elapsed = 0:0:00:31 / Sun Feb 28 21:30:48 2016
GPGPU-Sim PTX: 15800000 instructions simulated : ctaid=(23,0,0) tid=(95,0,0)
GPGPU-Sim PTX: 15900000 instructions simulated : ctaid=(37,0,0) tid=(95,0,0)
GPGPU-Sim PTX: 16000000 instructions simulated : ctaid=(62,0,0) tid=(31,0,0)
GPGPU-Sim uArch: cycles simulated: 29000  inst.: 16000736 (ipc=551.7) sim_rate=500023 (inst/sec) elapsed = 0:0:00:32 / Sun Feb 28 21:30:49 2016
GPGPU-Sim PTX: 16100000 instructions simulated : ctaid=(58,0,0) tid=(95,0,0)
GPGPU-Sim PTX: 16200000 instructions simulated : ctaid=(117,0,0) tid=(63,0,0)
GPGPU-Sim PTX: 16300000 instructions simulated : ctaid=(32,0,0) tid=(63,0,0)
GPGPU-Sim PTX: 16400000 instructions simulated : ctaid=(13,0,0) tid=(95,0,0)
GPGPU-Sim PTX: 16500000 instructions simulated : ctaid=(47,0,0) tid=(95,0,0)
GPGPU-Sim PTX: 16600000 instructions simulated : ctaid=(88,0,0) tid=(127,0,0)
GPGPU-Sim uArch: cycles simulated: 30000  inst.: 16570304 (ipc=552.3) sim_rate=502130 (inst/sec) elapsed = 0:0:00:33 / Sun Feb 28 21:30:50 2016
GPGPU-Sim PTX: 16700000 instructions simulated : ctaid=(86,0,0) tid=(95,0,0)
GPGPU-Sim PTX: 16800000 instructions simulated : ctaid=(7,0,0) tid=(127,0,0)
GPGPU-Sim PTX: 16900000 instructions simulated : ctaid=(40,0,0) tid=(95,0,0)
GPGPU-Sim PTX: 17000000 instructions simulated : ctaid=(107,0,0) tid=(63,0,0)
GPGPU-Sim PTX: 17100000 instructions simulated : ctaid=(2,0,0) tid=(127,0,0)
GPGPU-Sim uArch: cycles simulated: 31000  inst.: 17142176 (ipc=553.0) sim_rate=504181 (inst/sec) elapsed = 0:0:00:34 / Sun Feb 28 21:30:51 2016
GPGPU-Sim PTX: 17200000 instructions simulated : ctaid=(63,0,0) tid=(31,0,0)
GPGPU-Sim PTX: 17300000 instructions simulated : ctaid=(89,0,0) tid=(63,0,0)
GPGPU-Sim PTX: 17400000 instructions simulated : ctaid=(12,0,0) tid=(63,0,0)
GPGPU-Sim PTX: 17500000 instructions simulated : ctaid=(17,0,0) tid=(127,0,0)
GPGPU-Sim PTX: 17600000 instructions simulated : ctaid=(75,0,0) tid=(127,0,0)
GPGPU-Sim PTX: 17700000 instructions simulated : ctaid=(15,0,0) tid=(127,0,0)
GPGPU-Sim uArch: cycles simulated: 32000  inst.: 17737184 (ipc=554.3) sim_rate=506776 (inst/sec) elapsed = 0:0:00:35 / Sun Feb 28 21:30:52 2016
GPGPU-Sim PTX: 17800000 instructions simulated : ctaid=(21,0,0) tid=(95,0,0)
GPGPU-Sim PTX: 17900000 instructions simulated : ctaid=(0,0,0) tid=(31,0,0)
GPGPU-Sim PTX: 18000000 instructions simulated : ctaid=(29,0,0) tid=(95,0,0)
GPGPU-Sim PTX: 18100000 instructions simulated : ctaid=(98,0,0) tid=(31,0,0)
GPGPU-Sim PTX: 18200000 instructions simulated : ctaid=(11,0,0) tid=(127,0,0)
GPGPU-Sim PTX: 18300000 instructions simulated : ctaid=(3,0,0) tid=(63,0,0)
GPGPU-Sim uArch: cycles simulated: 33000  inst.: 18332512 (ipc=555.5) sim_rate=509236 (inst/sec) elapsed = 0:0:00:36 / Sun Feb 28 21:30:53 2016
GPGPU-Sim PTX: 18400000 instructions simulated : ctaid=(104,0,0) tid=(31,0,0)
GPGPU-Sim PTX: 18500000 instructions simulated : ctaid=(29,0,0) tid=(127,0,0)
GPGPU-Sim PTX: 18600000 instructions simulated : ctaid=(10,0,0) tid=(95,0,0)
GPGPU-Sim PTX: 18700000 instructions simulated : ctaid=(45,0,0) tid=(31,0,0)
GPGPU-Sim PTX: 18800000 instructions simulated : ctaid=(24,0,0) tid=(127,0,0)
GPGPU-Sim PTX: 18900000 instructions simulated : ctaid=(18,0,0) tid=(95,0,0)
GPGPU-Sim uArch: cycles simulated: 34000  inst.: 18920096 (ipc=556.5) sim_rate=511353 (inst/sec) elapsed = 0:0:00:37 / Sun Feb 28 21:30:54 2016
GPGPU-Sim PTX: 19000000 instructions simulated : ctaid=(37,0,0) tid=(95,0,0)
GPGPU-Sim PTX: 19100000 instructions simulated : ctaid=(9,0,0) tid=(31,0,0)
GPGPU-Sim PTX: 19200000 instructions simulated : ctaid=(64,0,0) tid=(31,0,0)
GPGPU-Sim PTX: 19300000 instructions simulated : ctaid=(117,0,0) tid=(63,0,0)
GPGPU-Sim PTX: 19400000 instructions simulated : ctaid=(51,0,0) tid=(95,0,0)
GPGPU-Sim PTX: 19500000 instructions simulated : ctaid=(60,0,0) tid=(63,0,0)
GPGPU-Sim uArch: cycles simulated: 35000  inst.: 19508000 (ipc=557.4) sim_rate=513368 (inst/sec) elapsed = 0:0:00:38 / Sun Feb 28 21:30:55 2016
GPGPU-Sim PTX: 19600000 instructions simulated : ctaid=(25,0,0) tid=(95,0,0)
GPGPU-Sim PTX: 19700000 instructions simulated : ctaid=(95,0,0) tid=(63,0,0)
GPGPU-Sim PTX: 19800000 instructions simulated : ctaid=(83,0,0) tid=(95,0,0)
GPGPU-Sim uArch: cycles simulated: 35500  inst.: 19802496 (ipc=557.8) sim_rate=507756 (inst/sec) elapsed = 0:0:00:39 / Sun Feb 28 21:30:56 2016
GPGPU-Sim PTX: 19900000 instructions simulated : ctaid=(15,0,0) tid=(127,0,0)
GPGPU-Sim PTX: 20000000 instructions simulated : ctaid=(46,0,0) tid=(31,0,0)
GPGPU-Sim PTX: 20100000 instructions simulated : ctaid=(102,0,0) tid=(95,0,0)
GPGPU-Sim PTX: 20200000 instructions simulated : ctaid=(32,0,0) tid=(31,0,0)
GPGPU-Sim PTX: 20300000 instructions simulated : ctaid=(53,0,0) tid=(95,0,0)
GPGPU-Sim PTX: 20400000 instructions simulated : ctaid=(26,0,0) tid=(63,0,0)
GPGPU-Sim uArch: cycles simulated: 36500  inst.: 20373248 (ipc=558.2) sim_rate=509331 (inst/sec) elapsed = 0:0:00:40 / Sun Feb 28 21:30:57 2016
GPGPU-Sim PTX: 20500000 instructions simulated : ctaid=(44,0,0) tid=(31,0,0)
GPGPU-Sim PTX: 20600000 instructions simulated : ctaid=(6,0,0) tid=(95,0,0)
GPGPU-Sim PTX: 20700000 instructions simulated : ctaid=(34,0,0) tid=(95,0,0)
GPGPU-Sim PTX: 20800000 instructions simulated : ctaid=(49,0,0) tid=(31,0,0)
GPGPU-Sim PTX: 20900000 instructions simulated : ctaid=(15,0,0) tid=(127,0,0)
GPGPU-Sim uArch: cycles simulated: 37500  inst.: 20935136 (ipc=558.3) sim_rate=510613 (inst/sec) elapsed = 0:0:00:41 / Sun Feb 28 21:30:58 2016
GPGPU-Sim PTX: 21000000 instructions simulated : ctaid=(54,0,0) tid=(95,0,0)
GPGPU-Sim PTX: 21100000 instructions simulated : ctaid=(56,0,0) tid=(127,0,0)
GPGPU-Sim PTX: 21200000 instructions simulated : ctaid=(69,0,0) tid=(95,0,0)
GPGPU-Sim PTX: 21300000 instructions simulated : ctaid=(78,0,0) tid=(31,0,0)
GPGPU-Sim PTX: 21400000 instructions simulated : ctaid=(51,0,0) tid=(95,0,0)
GPGPU-Sim PTX: 21500000 instructions simulated : ctaid=(101,0,0) tid=(31,0,0)
GPGPU-Sim uArch: cycles simulated: 38500  inst.: 21513920 (ipc=558.8) sim_rate=512236 (inst/sec) elapsed = 0:0:00:42 / Sun Feb 28 21:30:59 2016
GPGPU-Sim PTX: 21600000 instructions simulated : ctaid=(9,0,0) tid=(127,0,0)
GPGPU-Sim PTX: 21700000 instructions simulated : ctaid=(20,0,0) tid=(127,0,0)
GPGPU-Sim PTX: 21800000 instructions simulated : ctaid=(34,0,0) tid=(95,0,0)
GPGPU-Sim PTX: 21900000 instructions simulated : ctaid=(60,0,0) tid=(127,0,0)
GPGPU-Sim PTX: 22000000 instructions simulated : ctaid=(57,0,0) tid=(63,0,0)
GPGPU-Sim PTX: 22100000 instructions simulated : ctaid=(74,0,0) tid=(31,0,0)
GPGPU-Sim uArch: cycles simulated: 39500  inst.: 22072064 (ipc=558.8) sim_rate=513303 (inst/sec) elapsed = 0:0:00:43 / Sun Feb 28 21:31:00 2016
GPGPU-Sim PTX: 22200000 instructions simulated : ctaid=(49,0,0) tid=(95,0,0)
GPGPU-Sim PTX: 22300000 instructions simulated : ctaid=(62,0,0) tid=(95,0,0)
GPGPU-Sim PTX: 22400000 instructions simulated : ctaid=(25,0,0) tid=(31,0,0)
GPGPU-Sim PTX: 22500000 instructions simulated : ctaid=(8,0,0) tid=(127,0,0)
GPGPU-Sim PTX: 22600000 instructions simulated : ctaid=(93,0,0) tid=(95,0,0)
GPGPU-Sim uArch: cycles simulated: 40500  inst.: 22643040 (ipc=559.1) sim_rate=514614 (inst/sec) elapsed = 0:0:00:44 / Sun Feb 28 21:31:01 2016
GPGPU-Sim PTX: 22700000 instructions simulated : ctaid=(37,0,0) tid=(31,0,0)
GPGPU-Sim PTX: 22800000 instructions simulated : ctaid=(15,0,0) tid=(31,0,0)
GPGPU-Sim PTX: 22900000 instructions simulated : ctaid=(52,0,0) tid=(95,0,0)
GPGPU-Sim PTX: 23000000 instructions simulated : ctaid=(6,0,0) tid=(31,0,0)
GPGPU-Sim PTX: 23100000 instructions simulated : ctaid=(46,0,0) tid=(95,0,0)
GPGPU-Sim PTX: 23200000 instructions simulated : ctaid=(46,0,0) tid=(63,0,0)
GPGPU-Sim uArch: cycles simulated: 41500  inst.: 23226336 (ipc=559.7) sim_rate=516140 (inst/sec) elapsed = 0:0:00:45 / Sun Feb 28 21:31:02 2016
GPGPU-Sim PTX: 23300000 instructions simulated : ctaid=(35,0,0) tid=(63,0,0)
GPGPU-Sim PTX: 23400000 instructions simulated : ctaid=(85,0,0) tid=(31,0,0)
GPGPU-Sim PTX: 23500000 instructions simulated : ctaid=(85,0,0) tid=(95,0,0)
GPGPU-Sim uArch: cycles simulated: 42000  inst.: 23523744 (ipc=560.1) sim_rate=511385 (inst/sec) elapsed = 0:0:00:46 / Sun Feb 28 21:31:03 2016
GPGPU-Sim PTX: 23600000 instructions simulated : ctaid=(16,0,0) tid=(127,0,0)
GPGPU-Sim PTX: 23700000 instructions simulated : ctaid=(40,0,0) tid=(127,0,0)
GPGPU-Sim PTX: 23800000 instructions simulated : ctaid=(10,0,0) tid=(31,0,0)
GPGPU-Sim PTX: 23900000 instructions simulated : ctaid=(83,0,0) tid=(95,0,0)
GPGPU-Sim PTX: 24000000 instructions simulated : ctaid=(33,0,0) tid=(63,0,0)
GPGPU-Sim PTX: 24100000 instructions simulated : ctaid=(15,0,0) tid=(31,0,0)
GPGPU-Sim uArch: cycles simulated: 43000  inst.: 24099072 (ipc=560.4) sim_rate=512746 (inst/sec) elapsed = 0:0:00:47 / Sun Feb 28 21:31:04 2016
GPGPU-Sim PTX: 24200000 instructions simulated : ctaid=(59,0,0) tid=(95,0,0)
GPGPU-Sim PTX: 24300000 instructions simulated : ctaid=(21,0,0) tid=(95,0,0)
GPGPU-Sim PTX: 24400000 instructions simulated : ctaid=(67,0,0) tid=(31,0,0)
GPGPU-Sim PTX: 24500000 instructions simulated : ctaid=(34,0,0) tid=(127,0,0)
GPGPU-Sim PTX: 24600000 instructions simulated : ctaid=(41,0,0) tid=(31,0,0)
GPGPU-Sim PTX: 24700000 instructions simulated : ctaid=(5,0,0) tid=(63,0,0)
GPGPU-Sim uArch: cycles simulated: 44000  inst.: 24664864 (ipc=560.6) sim_rate=513851 (inst/sec) elapsed = 0:0:00:48 / Sun Feb 28 21:31:05 2016
GPGPU-Sim PTX: 24800000 instructions simulated : ctaid=(23,0,0) tid=(95,0,0)
GPGPU-Sim PTX: 24900000 instructions simulated : ctaid=(102,0,0) tid=(31,0,0)
GPGPU-Sim PTX: 25000000 instructions simulated : ctaid=(34,0,0) tid=(95,0,0)
GPGPU-Sim PTX: 25100000 instructions simulated : ctaid=(77,0,0) tid=(31,0,0)
GPGPU-Sim PTX: 25200000 instructions simulated : ctaid=(68,0,0) tid=(127,0,0)
GPGPU-Sim uArch: cycles simulated: 45000  inst.: 25252256 (ipc=561.2) sim_rate=515352 (inst/sec) elapsed = 0:0:00:49 / Sun Feb 28 21:31:06 2016
GPGPU-Sim PTX: 25300000 instructions simulated : ctaid=(3,0,0) tid=(127,0,0)
GPGPU-Sim PTX: 25400000 instructions simulated : ctaid=(25,0,0) tid=(95,0,0)
GPGPU-Sim PTX: 25500000 instructions simulated : ctaid=(30,0,0) tid=(95,0,0)
GPGPU-Sim PTX: 25600000 instructions simulated : ctaid=(20,0,0) tid=(95,0,0)
GPGPU-Sim PTX: 25700000 instructions simulated : ctaid=(47,0,0) tid=(31,0,0)
GPGPU-Sim PTX: 25800000 instructions simulated : ctaid=(96,0,0) tid=(31,0,0)
GPGPU-Sim uArch: cycles simulated: 46000  inst.: 25808544 (ipc=561.1) sim_rate=516170 (inst/sec) elapsed = 0:0:00:50 / Sun Feb 28 21:31:07 2016
GPGPU-Sim PTX: 25900000 instructions simulated : ctaid=(33,0,0) tid=(63,0,0)
GPGPU-Sim PTX: 26000000 instructions simulated : ctaid=(118,0,0) tid=(31,0,0)
GPGPU-Sim PTX: 26100000 instructions simulated : ctaid=(96,0,0) tid=(127,0,0)
GPGPU-Sim PTX: 26200000 instructions simulated : ctaid=(12,0,0) tid=(63,0,0)
GPGPU-Sim PTX: 26300000 instructions simulated : ctaid=(108,0,0) tid=(127,0,0)
GPGPU-Sim PTX: 26400000 instructions simulated : ctaid=(32,0,0) tid=(31,0,0)
GPGPU-Sim uArch: cycles simulated: 47000  inst.: 26395872 (ipc=561.6) sim_rate=517566 (inst/sec) elapsed = 0:0:00:51 / Sun Feb 28 21:31:08 2016
GPGPU-Sim PTX: 26500000 instructions simulated : ctaid=(47,0,0) tid=(63,0,0)
GPGPU-Sim PTX: 26600000 instructions simulated : ctaid=(113,0,0) tid=(95,0,0)
GPGPU-Sim PTX: 26700000 instructions simulated : ctaid=(20,0,0) tid=(31,0,0)
GPGPU-Sim PTX: 26800000 instructions simulated : ctaid=(83,0,0) tid=(63,0,0)
GPGPU-Sim PTX: 26900000 instructions simulated : ctaid=(84,0,0) tid=(95,0,0)
GPGPU-Sim PTX: 27000000 instructions simulated : ctaid=(89,0,0) tid=(95,0,0)
GPGPU-Sim uArch: cycles simulated: 48000  inst.: 27002624 (ipc=562.6) sim_rate=519281 (inst/sec) elapsed = 0:0:00:52 / Sun Feb 28 21:31:09 2016
GPGPU-Sim PTX: 27100000 instructions simulated : ctaid=(97,0,0) tid=(127,0,0)
GPGPU-Sim PTX: 27200000 instructions simulated : ctaid=(5,0,0) tid=(95,0,0)
GPGPU-Sim PTX: 27300000 instructions simulated : ctaid=(16,0,0) tid=(31,0,0)
GPGPU-Sim uArch: cycles simulated: 48500  inst.: 27295232 (ipc=562.8) sim_rate=515004 (inst/sec) elapsed = 0:0:00:53 / Sun Feb 28 21:31:10 2016
GPGPU-Sim PTX: 27400000 instructions simulated : ctaid=(6,0,0) tid=(63,0,0)
GPGPU-Sim PTX: 27500000 instructions simulated : ctaid=(40,0,0) tid=(95,0,0)
GPGPU-Sim PTX: 27600000 instructions simulated : ctaid=(3,0,0) tid=(63,0,0)
GPGPU-Sim PTX: 27700000 instructions simulated : ctaid=(78,0,0) tid=(95,0,0)
GPGPU-Sim PTX: 27800000 instructions simulated : ctaid=(89,0,0) tid=(63,0,0)
GPGPU-Sim PTX: 27900000 instructions simulated : ctaid=(4,0,0) tid=(127,0,0)
GPGPU-Sim uArch: cycles simulated: 49500  inst.: 27868320 (ipc=563.0) sim_rate=516080 (inst/sec) elapsed = 0:0:00:54 / Sun Feb 28 21:31:11 2016
GPGPU-Sim PTX: 28000000 instructions simulated : ctaid=(28,0,0) tid=(63,0,0)
GPGPU-Sim PTX: 28100000 instructions simulated : ctaid=(85,0,0) tid=(95,0,0)
GPGPU-Sim PTX: 28200000 instructions simulated : ctaid=(5,0,0) tid=(31,0,0)
GPGPU-Sim PTX: 28300000 instructions simulated : ctaid=(25,0,0) tid=(95,0,0)
GPGPU-Sim PTX: 28400000 instructions simulated : ctaid=(87,0,0) tid=(31,0,0)
GPGPU-Sim uArch: cycles simulated: 50500  inst.: 28446688 (ipc=563.3) sim_rate=517212 (inst/sec) elapsed = 0:0:00:55 / Sun Feb 28 21:31:12 2016
GPGPU-Sim PTX: 28500000 instructions simulated : ctaid=(96,0,0) tid=(31,0,0)
GPGPU-Sim PTX: 28600000 instructions simulated : ctaid=(4,0,0) tid=(95,0,0)
GPGPU-Sim PTX: 28700000 instructions simulated : ctaid=(22,0,0) tid=(31,0,0)
GPGPU-Sim PTX: 28800000 instructions simulated : ctaid=(70,0,0) tid=(95,0,0)
GPGPU-Sim PTX: 28900000 instructions simulated : ctaid=(56,0,0) tid=(127,0,0)
GPGPU-Sim PTX: 29000000 instructions simulated : ctaid=(69,0,0) tid=(95,0,0)
GPGPU-Sim uArch: cycles simulated: 51500  inst.: 29036000 (ipc=563.8) sim_rate=518500 (inst/sec) elapsed = 0:0:00:56 / Sun Feb 28 21:31:13 2016
GPGPU-Sim PTX: 29100000 instructions simulated : ctaid=(60,0,0) tid=(31,0,0)
GPGPU-Sim PTX: 29200000 instructions simulated : ctaid=(45,0,0) tid=(127,0,0)
GPGPU-Sim PTX: 29300000 instructions simulated : ctaid=(31,0,0) tid=(127,0,0)
GPGPU-Sim PTX: 29400000 instructions simulated : ctaid=(42,0,0) tid=(95,0,0)
GPGPU-Sim PTX: 29500000 instructions simulated : ctaid=(75,0,0) tid=(127,0,0)
GPGPU-Sim PTX: 29600000 instructions simulated : ctaid=(48,0,0) tid=(95,0,0)
GPGPU-Sim uArch: cycles simulated: 52500  inst.: 29610240 (ipc=564.0) sim_rate=519477 (inst/sec) elapsed = 0:0:00:57 / Sun Feb 28 21:31:14 2016
GPGPU-Sim PTX: 29700000 instructions simulated : ctaid=(48,0,0) tid=(95,0,0)
GPGPU-Sim PTX: 29800000 instructions simulated : ctaid=(63,0,0) tid=(31,0,0)
GPGPU-Sim PTX: 29900000 instructions simulated : ctaid=(2,0,0) tid=(127,0,0)
GPGPU-Sim uArch: cycles simulated: 53000  inst.: 29882208 (ipc=563.8) sim_rate=515210 (inst/sec) elapsed = 0:0:00:58 / Sun Feb 28 21:31:15 2016
GPGPU-Sim PTX: 30000000 instructions simulated : ctaid=(38,0,0) tid=(127,0,0)
GPGPU-Sim PTX: 30100000 instructions simulated : ctaid=(80,0,0) tid=(31,0,0)
GPGPU-Sim PTX: 30200000 instructions simulated : ctaid=(77,0,0) tid=(95,0,0)
GPGPU-Sim PTX: 30300000 instructions simulated : ctaid=(35,0,0) tid=(95,0,0)
GPGPU-Sim PTX: 30400000 instructions simulated : ctaid=(6,0,0) tid=(31,0,0)
GPGPU-Sim PTX: 30500000 instructions simulated : ctaid=(45,0,0) tid=(127,0,0)
GPGPU-Sim uArch: cycles simulated: 54000  inst.: 30492768 (ipc=564.7) sim_rate=516826 (inst/sec) elapsed = 0:0:00:59 / Sun Feb 28 21:31:16 2016
GPGPU-Sim PTX: 30600000 instructions simulated : ctaid=(22,0,0) tid=(31,0,0)
GPGPU-Sim PTX: 30700000 instructions simulated : ctaid=(2,0,0) tid=(127,0,0)
GPGPU-Sim PTX: 30800000 instructions simulated : ctaid=(87,0,0) tid=(95,0,0)
GPGPU-Sim PTX: 30900000 instructions simulated : ctaid=(87,0,0) tid=(31,0,0)
GPGPU-Sim PTX: 31000000 instructions simulated : ctaid=(46,0,0) tid=(95,0,0)
GPGPU-Sim uArch: cycles simulated: 55000  inst.: 31054560 (ipc=564.6) sim_rate=517576 (inst/sec) elapsed = 0:0:01:00 / Sun Feb 28 21:31:17 2016
GPGPU-Sim PTX: 31100000 instructions simulated : ctaid=(34,0,0) tid=(63,0,0)
GPGPU-Sim PTX: 31200000 instructions simulated : ctaid=(18,0,0) tid=(63,0,0)
GPGPU-Sim PTX: 31300000 instructions simulated : ctaid=(30,0,0) tid=(127,0,0)
GPGPU-Sim PTX: 31400000 instructions simulated : ctaid=(48,0,0) tid=(127,0,0)
GPGPU-Sim PTX: 31500000 instructions simulated : ctaid=(36,0,0) tid=(31,0,0)
GPGPU-Sim PTX: 31600000 instructions simulated : ctaid=(71,0,0) tid=(63,0,0)
GPGPU-Sim uArch: cycles simulated: 56000  inst.: 31631296 (ipc=564.8) sim_rate=518545 (inst/sec) elapsed = 0:0:01:01 / Sun Feb 28 21:31:18 2016
GPGPU-Sim PTX: 31700000 instructions simulated : ctaid=(30,0,0) tid=(63,0,0)
GPGPU-Sim PTX: 31800000 instructions simulated : ctaid=(31,0,0) tid=(127,0,0)
GPGPU-Sim PTX: 31900000 instructions simulated : ctaid=(103,0,0) tid=(31,0,0)
GPGPU-Sim PTX: 32000000 instructions simulated : ctaid=(118,0,0) tid=(95,0,0)
GPGPU-Sim PTX: 32100000 instructions simulated : ctaid=(41,0,0) tid=(127,0,0)
GPGPU-Sim PTX: 32200000 instructions simulated : ctaid=(24,0,0) tid=(63,0,0)
GPGPU-Sim uArch: cycles simulated: 57000  inst.: 32181888 (ipc=564.6) sim_rate=519062 (inst/sec) elapsed = 0:0:01:02 / Sun Feb 28 21:31:19 2016
GPGPU-Sim PTX: 32300000 instructions simulated : ctaid=(25,0,0) tid=(95,0,0)
GPGPU-Sim PTX: 32400000 instructions simulated : ctaid=(19,0,0) tid=(127,0,0)
GPGPU-Sim PTX: 32500000 instructions simulated : ctaid=(30,0,0) tid=(63,0,0)
GPGPU-Sim PTX: 32600000 instructions simulated : ctaid=(113,0,0) tid=(31,0,0)
GPGPU-Sim PTX: 32700000 instructions simulated : ctaid=(45,0,0) tid=(95,0,0)
GPGPU-Sim uArch: cycles simulated: 58000  inst.: 32757632 (ipc=564.8) sim_rate=519962 (inst/sec) elapsed = 0:0:01:03 / Sun Feb 28 21:31:20 2016
GPGPU-Sim PTX: 32800000 instructions simulated : ctaid=(2,0,0) tid=(127,0,0)
GPGPU-Sim PTX: 32900000 instructions simulated : ctaid=(49,0,0) tid=(63,0,0)
GPGPU-Sim PTX: 33000000 instructions simulated : ctaid=(79,0,0) tid=(63,0,0)
GPGPU-Sim PTX: 33100000 instructions simulated : ctaid=(20,0,0) tid=(31,0,0)
GPGPU-Sim PTX: 33200000 instructions simulated : ctaid=(65,0,0) tid=(95,0,0)
GPGPU-Sim PTX: 33300000 instructions simulated : ctaid=(102,0,0) tid=(95,0,0)
GPGPU-Sim uArch: cycles simulated: 59000  inst.: 33353120 (ipc=565.3) sim_rate=521142 (inst/sec) elapsed = 0:0:01:04 / Sun Feb 28 21:31:21 2016
GPGPU-Sim PTX: 33400000 instructions simulated : ctaid=(42,0,0) tid=(31,0,0)
GPGPU-Sim PTX: 33500000 instructions simulated : ctaid=(65,0,0) tid=(95,0,0)
GPGPU-Sim PTX: 33600000 instructions simulated : ctaid=(28,0,0) tid=(63,0,0)
GPGPU-Sim PTX: 33700000 instructions simulated : ctaid=(15,0,0) tid=(63,0,0)
GPGPU-Sim PTX: 33800000 instructions simulated : ctaid=(119,0,0) tid=(31,0,0)
GPGPU-Sim PTX: 33900000 instructions simulated : ctaid=(42,0,0) tid=(63,0,0)
GPGPU-Sim uArch: cycles simulated: 60000  inst.: 33939360 (ipc=565.7) sim_rate=522144 (inst/sec) elapsed = 0:0:01:05 / Sun Feb 28 21:31:22 2016
GPGPU-Sim PTX: 34000000 instructions simulated : ctaid=(71,0,0) tid=(127,0,0)
GPGPU-Sim PTX: 34100000 instructions simulated : ctaid=(91,0,0) tid=(95,0,0)
GPGPU-Sim PTX: 34200000 instructions simulated : ctaid=(79,0,0) tid=(95,0,0)
GPGPU-Sim uArch: cycles simulated: 60500  inst.: 34219616 (ipc=565.6) sim_rate=518479 (inst/sec) elapsed = 0:0:01:06 / Sun Feb 28 21:31:23 2016
GPGPU-Sim PTX: 34300000 instructions simulated : ctaid=(54,0,0) tid=(127,0,0)
GPGPU-Sim PTX: 34400000 instructions simulated : ctaid=(60,0,0) tid=(95,0,0)
GPGPU-Sim PTX: 34500000 instructions simulated : ctaid=(60,0,0) tid=(127,0,0)
GPGPU-Sim PTX: 34600000 instructions simulated : ctaid=(84,0,0) tid=(127,0,0)
GPGPU-Sim PTX: 34700000 instructions simulated : ctaid=(69,0,0) tid=(95,0,0)
GPGPU-Sim PTX: 34800000 instructions simulated : ctaid=(48,0,0) tid=(95,0,0)
GPGPU-Sim PTX: 34900000 instructions simulated : ctaid=(36,0,0) tid=(63,0,0)
GPGPU-Sim uArch: cycles simulated: 62000  inst.: 34939712 (ipc=563.5) sim_rate=521488 (inst/sec) elapsed = 0:0:01:07 / Sun Feb 28 21:31:24 2016
GPGPU-Sim PTX: 35000000 instructions simulated : ctaid=(24,0,0) tid=(127,0,0)
GPGPU-Sim PTX: 35100000 instructions simulated : ctaid=(23,0,0) tid=(31,0,0)
GPGPU-Sim PTX: 35200000 instructions simulated : ctaid=(49,0,0) tid=(127,0,0)
GPGPU-Sim PTX: 35300000 instructions simulated : ctaid=(70,0,0) tid=(127,0,0)
GPGPU-Sim uArch: Shader 2 finished CTA #0 (62763,0), 7 CTAs running
GPGPU-Sim uArch: core:  2, cta: 0 initialized @(62764,0)
GPGPU-Sim PTX: 35400000 instructions simulated : ctaid=(67,0,0) tid=(127,0,0)
GPGPU-Sim uArch: Shader 4 finished CTA #0 (62937,0), 7 CTAs running
GPGPU-Sim uArch: core:  4, cta: 0 initialized @(62938,0)
GPGPU-Sim uArch: cycles simulated: 63000  inst.: 35435072 (ipc=562.5) sim_rate=521104 (inst/sec) elapsed = 0:0:01:08 / Sun Feb 28 21:31:25 2016
GPGPU-Sim PTX: 35500000 instructions simulated : ctaid=(37,0,0) tid=(31,0,0)
GPGPU-Sim PTX: 35600000 instructions simulated : ctaid=(40,0,0) tid=(31,0,0)
GPGPU-Sim PTX: 35700000 instructions simulated : ctaid=(101,0,0) tid=(31,0,0)
GPGPU-Sim PTX: 35800000 instructions simulated : ctaid=(99,0,0) tid=(63,0,0)
GPGPU-Sim PTX: 35900000 instructions simulated : ctaid=(41,0,0) tid=(63,0,0)
GPGPU-Sim uArch: cycles simulated: 64000  inst.: 35944320 (ipc=561.6) sim_rate=520932 (inst/sec) elapsed = 0:0:01:09 / Sun Feb 28 21:31:26 2016
GPGPU-Sim PTX: 36000000 instructions simulated : ctaid=(55,0,0) tid=(127,0,0)
GPGPU-Sim PTX: 36100000 instructions simulated : ctaid=(57,0,0) tid=(31,0,0)
GPGPU-Sim uArch: Shader 14 finished CTA #0 (64247,0), 7 CTAs running
GPGPU-Sim uArch: core: 14, cta: 0 initialized @(64248,0)
GPGPU-Sim PTX: 36200000 instructions simulated : ctaid=(105,0,0) tid=(95,0,0)
GPGPU-Sim PTX: 36300000 instructions simulated : ctaid=(81,0,0) tid=(95,0,0)
GPGPU-Sim uArch: Shader 10 finished CTA #0 (64768,0), 7 CTAs running
GPGPU-Sim uArch: core: 10, cta: 0 initialized @(64769,0)
GPGPU-Sim PTX: 36400000 instructions simulated : ctaid=(105,0,0) tid=(95,0,0)
GPGPU-Sim uArch: cycles simulated: 65000  inst.: 36447776 (ipc=560.7) sim_rate=520682 (inst/sec) elapsed = 0:0:01:10 / Sun Feb 28 21:31:27 2016
GPGPU-Sim PTX: 36500000 instructions simulated : ctaid=(50,0,0) tid=(31,0,0)
GPGPU-Sim PTX: 36600000 instructions simulated : ctaid=(8,0,0) tid=(63,0,0)
GPGPU-Sim PTX: 36700000 instructions simulated : ctaid=(52,0,0) tid=(31,0,0)
GPGPU-Sim PTX: 36800000 instructions simulated : ctaid=(70,0,0) tid=(31,0,0)
GPGPU-Sim PTX: 36900000 instructions simulated : ctaid=(99,0,0) tid=(95,0,0)
GPGPU-Sim uArch: Shader 7 finished CTA #0 (65946,0), 7 CTAs running
GPGPU-Sim uArch: core:  7, cta: 0 initialized @(65947,0)
GPGPU-Sim PTX: 37000000 instructions simulated : ctaid=(103,0,0) tid=(127,0,0)
GPGPU-Sim uArch: cycles simulated: 66000  inst.: 36958624 (ipc=560.0) sim_rate=520544 (inst/sec) elapsed = 0:0:01:11 / Sun Feb 28 21:31:28 2016
GPGPU-Sim uArch: Shader 4 finished CTA #1 (66123,0), 7 CTAs running
GPGPU-Sim uArch: core:  4, cta: 1 initialized @(66124,0)
GPGPU-Sim PTX: 37100000 instructions simulated : ctaid=(101,0,0) tid=(31,0,0)
GPGPU-Sim PTX: 37200000 instructions simulated : ctaid=(35,0,0) tid=(127,0,0)
GPGPU-Sim PTX: 37300000 instructions simulated : ctaid=(22,0,0) tid=(63,0,0)
GPGPU-Sim uArch: Shader 9 finished CTA #0 (66536,0), 7 CTAs running
GPGPU-Sim uArch: core:  9, cta: 0 initialized @(66537,0)
GPGPU-Sim uArch: Shader 0 finished CTA #0 (66613,0), 7 CTAs running
GPGPU-Sim uArch: core:  0, cta: 0 initialized @(66614,0)
GPGPU-Sim PTX: 37400000 instructions simulated : ctaid=(106,0,0) tid=(95,0,0)
GPGPU-Sim PTX: 37500000 instructions simulated : ctaid=(104,0,0) tid=(63,0,0)
GPGPU-Sim uArch: Shader 6 finished CTA #0 (66952,0), 7 CTAs running
GPGPU-Sim uArch: core:  6, cta: 0 initialized @(66953,0)
GPGPU-Sim uArch: cycles simulated: 67000  inst.: 37524640 (ipc=560.1) sim_rate=521175 (inst/sec) elapsed = 0:0:01:12 / Sun Feb 28 21:31:29 2016
GPGPU-Sim PTX: 37600000 instructions simulated : ctaid=(67,0,0) tid=(127,0,0)
GPGPU-Sim uArch: Shader 0 finished CTA #1 (67068,0), 7 CTAs running
GPGPU-Sim uArch: core:  0, cta: 1 initialized @(67069,0)
GPGPU-Sim uArch: Shader 2 finished CTA #1 (67113,0), 7 CTAs running
GPGPU-Sim uArch: core:  2, cta: 1 initialized @(67114,0)
GPGPU-Sim uArch: Shader 5 finished CTA #0 (67197,0), 7 CTAs running
GPGPU-Sim uArch: core:  5, cta: 0 initialized @(67198,0)
GPGPU-Sim PTX: 37700000 instructions simulated : ctaid=(122,0,0) tid=(63,0,0)
GPGPU-Sim uArch: Shader 9 finished CTA #1 (67443,0), 7 CTAs running
GPGPU-Sim uArch: core:  9, cta: 1 initialized @(67444,0)
GPGPU-Sim PTX: 37800000 instructions simulated : ctaid=(107,0,0) tid=(31,0,0)
GPGPU-Sim uArch: Shader 11 finished CTA #1 (67463,0), 7 CTAs running
GPGPU-Sim uArch: core: 11, cta: 1 initialized @(67464,0)
GPGPU-Sim uArch: Shader 13 finished CTA #0 (67542,0), 7 CTAs running
GPGPU-Sim uArch: core: 13, cta: 0 initialized @(67543,0)
GPGPU-Sim uArch: Shader 3 finished CTA #0 (67554,0), 7 CTAs running
GPGPU-Sim uArch: core:  3, cta: 0 initialized @(67555,0)
GPGPU-Sim uArch: Shader 11 finished CTA #0 (67569,0), 7 CTAs running
GPGPU-Sim uArch: core: 11, cta: 0 initialized @(67570,0)
GPGPU-Sim PTX: 37900000 instructions simulated : ctaid=(73,0,0) tid=(63,0,0)
GPGPU-Sim uArch: Shader 10 finished CTA #1 (67647,0), 7 CTAs running
GPGPU-Sim uArch: core: 10, cta: 1 initialized @(67648,0)
GPGPU-Sim uArch: Shader 7 finished CTA #1 (67679,0), 7 CTAs running
GPGPU-Sim uArch: core:  7, cta: 1 initialized @(67680,0)
GPGPU-Sim uArch: Shader 14 finished CTA #1 (67694,0), 7 CTAs running
GPGPU-Sim uArch: core: 14, cta: 1 initialized @(67695,0)
GPGPU-Sim uArch: Shader 1 finished CTA #0 (67790,0), 7 CTAs running
GPGPU-Sim uArch: core:  1, cta: 0 initialized @(67791,0)
GPGPU-Sim uArch: Shader 8 finished CTA #0 (67792,0), 7 CTAs running
GPGPU-Sim uArch: core:  8, cta: 0 initialized @(67793,0)
GPGPU-Sim PTX: 38000000 instructions simulated : ctaid=(78,0,0) tid=(31,0,0)
GPGPU-Sim uArch: Shader 10 finished CTA #2 (67843,0), 7 CTAs running
GPGPU-Sim uArch: core: 10, cta: 2 initialized @(67844,0)
GPGPU-Sim PTX: 38100000 instructions simulated : ctaid=(122,0,0) tid=(63,0,0)
GPGPU-Sim uArch: cycles simulated: 68000  inst.: 38077408 (ipc=560.0) sim_rate=521608 (inst/sec) elapsed = 0:0:01:13 / Sun Feb 28 21:31:30 2016
GPGPU-Sim PTX: 38200000 instructions simulated : ctaid=(34,0,0) tid=(127,0,0)
GPGPU-Sim uArch: Shader 4 finished CTA #2 (68196,0), 7 CTAs running
GPGPU-Sim uArch: core:  4, cta: 2 initialized @(68197,0)
GPGPU-Sim PTX: 38300000 instructions simulated : ctaid=(98,0,0) tid=(95,0,0)
GPGPU-Sim PTX: 38400000 instructions simulated : ctaid=(80,0,0) tid=(127,0,0)
GPGPU-Sim uArch: Shader 3 finished CTA #1 (68453,0), 7 CTAs running
GPGPU-Sim uArch: core:  3, cta: 1 initialized @(68454,0)
GPGPU-Sim uArch: Shader 12 finished CTA #0 (68560,0), 7 CTAs running
GPGPU-Sim uArch: core: 12, cta: 0 initialized @(68561,0)
GPGPU-Sim PTX: 38500000 instructions simulated : ctaid=(51,0,0) tid=(127,0,0)
GPGPU-Sim PTX: 38600000 instructions simulated : ctaid=(121,0,0) tid=(31,0,0)
GPGPU-Sim uArch: Shader 6 finished CTA #1 (68847,0), 7 CTAs running
GPGPU-Sim uArch: core:  6, cta: 1 initialized @(68848,0)
GPGPU-Sim PTX: 38700000 instructions simulated : ctaid=(99,0,0) tid=(95,0,0)
GPGPU-Sim uArch: cycles simulated: 69000  inst.: 38683392 (ipc=560.6) sim_rate=522748 (inst/sec) elapsed = 0:0:01:14 / Sun Feb 28 21:31:31 2016
GPGPU-Sim PTX: 38800000 instructions simulated : ctaid=(115,0,0) tid=(95,0,0)
GPGPU-Sim uArch: Shader 2 finished CTA #2 (69263,0), 7 CTAs running
GPGPU-Sim uArch: core:  2, cta: 2 initialized @(69264,0)
GPGPU-Sim PTX: 38900000 instructions simulated : ctaid=(109,0,0) tid=(95,0,0)
GPGPU-Sim uArch: Shader 14 finished CTA #2 (69410,0), 7 CTAs running
GPGPU-Sim uArch: core: 14, cta: 2 initialized @(69411,0)
GPGPU-Sim PTX: 39000000 instructions simulated : ctaid=(44,0,0) tid=(127,0,0)
GPGPU-Sim uArch: Shader 8 finished CTA #1 (69493,0), 7 CTAs running
GPGPU-Sim uArch: core:  8, cta: 1 initialized @(69494,0)
GPGPU-Sim PTX: 39100000 instructions simulated : ctaid=(62,0,0) tid=(63,0,0)
GPGPU-Sim uArch: Shader 5 finished CTA #1 (69623,0), 7 CTAs running
GPGPU-Sim uArch: core:  5, cta: 1 initialized @(69624,0)
GPGPU-Sim uArch: Shader 8 finished CTA #2 (69661,0), 7 CTAs running
GPGPU-Sim uArch: core:  8, cta: 2 initialized @(69662,0)
GPGPU-Sim PTX: 39200000 instructions simulated : ctaid=(104,0,0) tid=(127,0,0)
GPGPU-Sim uArch: Shader 1 finished CTA #1 (69774,0), 7 CTAs running
GPGPU-Sim uArch: core:  1, cta: 1 initialized @(69775,0)
GPGPU-Sim PTX: 39300000 instructions simulated : ctaid=(46,0,0) tid=(63,0,0)
GPGPU-Sim uArch: cycles simulated: 70000  inst.: 39298592 (ipc=561.4) sim_rate=523981 (inst/sec) elapsed = 0:0:01:15 / Sun Feb 28 21:31:32 2016
GPGPU-Sim uArch: Shader 7 finished CTA #2 (70030,0), 7 CTAs running
GPGPU-Sim uArch: core:  7, cta: 2 initialized @(70031,0)
GPGPU-Sim PTX: 39400000 instructions simulated : ctaid=(81,0,0) tid=(63,0,0)
GPGPU-Sim PTX: 39500000 instructions simulated : ctaid=(64,0,0) tid=(127,0,0)
GPGPU-Sim PTX: 39600000 instructions simulated : ctaid=(66,0,0) tid=(63,0,0)
GPGPU-Sim uArch: cycles simulated: 70500  inst.: 39612768 (ipc=561.9) sim_rate=521220 (inst/sec) elapsed = 0:0:01:16 / Sun Feb 28 21:31:33 2016
GPGPU-Sim uArch: Shader 12 finished CTA #1 (70534,0), 7 CTAs running
GPGPU-Sim uArch: core: 12, cta: 1 initialized @(70535,0)
GPGPU-Sim PTX: 39700000 instructions simulated : ctaid=(89,0,0) tid=(95,0,0)
GPGPU-Sim uArch: Shader 13 finished CTA #1 (70667,0), 7 CTAs running
GPGPU-Sim uArch: core: 13, cta: 1 initialized @(70668,0)
GPGPU-Sim uArch: Shader 13 finished CTA #2 (70673,0), 7 CTAs running
GPGPU-Sim uArch: core: 13, cta: 2 initialized @(70674,0)
GPGPU-Sim PTX: 39800000 instructions simulated : ctaid=(88,0,0) tid=(95,0,0)
GPGPU-Sim PTX: 39900000 instructions simulated : ctaid=(71,0,0) tid=(31,0,0)
GPGPU-Sim uArch: Shader 1 finished CTA #2 (70901,0), 7 CTAs running
GPGPU-Sim uArch: core:  1, cta: 2 initialized @(70902,0)
GPGPU-Sim uArch: Shader 3 finished CTA #2 (70903,0), 7 CTAs running
GPGPU-Sim uArch: core:  3, cta: 2 initialized @(70904,0)
GPGPU-Sim uArch: Shader 11 finished CTA #2 (71033,0), 7 CTAs running
GPGPU-Sim uArch: core: 11, cta: 2 initialized @(71034,0)
GPGPU-Sim PTX: 40000000 instructions simulated : ctaid=(93,0,0) tid=(95,0,0)
GPGPU-Sim PTX: 40100000 instructions simulated : ctaid=(106,0,0) tid=(31,0,0)
GPGPU-Sim PTX: 40200000 instructions simulated : ctaid=(74,0,0) tid=(127,0,0)
GPGPU-Sim uArch: cycles simulated: 71500  inst.: 40218784 (ipc=562.5) sim_rate=522321 (inst/sec) elapsed = 0:0:01:17 / Sun Feb 28 21:31:34 2016
GPGPU-Sim PTX: 40300000 instructions simulated : ctaid=(145,0,0) tid=(31,0,0)
GPGPU-Sim PTX: 40400000 instructions simulated : ctaid=(64,0,0) tid=(31,0,0)
GPGPU-Sim PTX: 40500000 instructions simulated : ctaid=(116,0,0) tid=(31,0,0)
GPGPU-Sim PTX: 40600000 instructions simulated : ctaid=(81,0,0) tid=(63,0,0)
GPGPU-Sim PTX: 40700000 instructions simulated : ctaid=(53,0,0) tid=(63,0,0)
GPGPU-Sim PTX: 40800000 instructions simulated : ctaid=(78,0,0) tid=(63,0,0)
GPGPU-Sim uArch: cycles simulated: 72500  inst.: 40831328 (ipc=563.2) sim_rate=523478 (inst/sec) elapsed = 0:0:01:18 / Sun Feb 28 21:31:35 2016
GPGPU-Sim PTX: 40900000 instructions simulated : ctaid=(109,0,0) tid=(127,0,0)
GPGPU-Sim PTX: 41000000 instructions simulated : ctaid=(94,0,0) tid=(63,0,0)
GPGPU-Sim PTX: 41100000 instructions simulated : ctaid=(143,0,0) tid=(31,0,0)
GPGPU-Sim uArch: cycles simulated: 73000  inst.: 41122432 (ipc=563.3) sim_rate=520537 (inst/sec) elapsed = 0:0:01:19 / Sun Feb 28 21:31:36 2016
GPGPU-Sim PTX: 41200000 instructions simulated : ctaid=(120,0,0) tid=(63,0,0)
GPGPU-Sim uArch: Shader 2 finished CTA #3 (73053,0), 7 CTAs running
GPGPU-Sim uArch: core:  2, cta: 3 initialized @(73054,0)
GPGPU-Sim uArch: Shader 10 finished CTA #3 (73157,0), 7 CTAs running
GPGPU-Sim uArch: core: 10, cta: 3 initialized @(73158,0)
GPGPU-Sim PTX: 41300000 instructions simulated : ctaid=(82,0,0) tid=(95,0,0)
GPGPU-Sim PTX: 41400000 instructions simulated : ctaid=(45,0,0) tid=(63,0,0)
GPGPU-Sim uArch: Shader 11 finished CTA #3 (73403,0), 7 CTAs running
GPGPU-Sim uArch: core: 11, cta: 3 initialized @(73404,0)
GPGPU-Sim uArch: Shader 5 finished CTA #2 (73419,0), 7 CTAs running
GPGPU-Sim uArch: core:  5, cta: 2 initialized @(73420,0)
GPGPU-Sim PTX: 41500000 instructions simulated : ctaid=(94,0,0) tid=(127,0,0)
GPGPU-Sim PTX: 41600000 instructions simulated : ctaid=(141,0,0) tid=(95,0,0)
GPGPU-Sim uArch: Shader 9 finished CTA #2 (73868,0), 7 CTAs running
GPGPU-Sim uArch: core:  9, cta: 2 initialized @(73869,0)
GPGPU-Sim PTX: 41700000 instructions simulated : ctaid=(132,0,0) tid=(95,0,0)
GPGPU-Sim uArch: cycles simulated: 74000  inst.: 41706720 (ipc=563.6) sim_rate=521334 (inst/sec) elapsed = 0:0:01:20 / Sun Feb 28 21:31:37 2016
GPGPU-Sim uArch: Shader 12 finished CTA #2 (74035,0), 7 CTAs running
GPGPU-Sim uArch: core: 12, cta: 2 initialized @(74036,0)
GPGPU-Sim PTX: 41800000 instructions simulated : ctaid=(96,0,0) tid=(127,0,0)
GPGPU-Sim PTX: 41900000 instructions simulated : ctaid=(127,0,0) tid=(127,0,0)
GPGPU-Sim PTX: 42000000 instructions simulated : ctaid=(111,0,0) tid=(31,0,0)
GPGPU-Sim uArch: Shader 0 finished CTA #2 (74436,0), 7 CTAs running
GPGPU-Sim uArch: core:  0, cta: 2 initialized @(74437,0)
GPGPU-Sim uArch: cycles simulated: 74500  inst.: 41993216 (ipc=563.7) sim_rate=518434 (inst/sec) elapsed = 0:0:01:21 / Sun Feb 28 21:31:38 2016
GPGPU-Sim PTX: 42100000 instructions simulated : ctaid=(65,0,0) tid=(95,0,0)
GPGPU-Sim PTX: 42200000 instructions simulated : ctaid=(125,0,0) tid=(63,0,0)
GPGPU-Sim PTX: 42300000 instructions simulated : ctaid=(95,0,0) tid=(127,0,0)
GPGPU-Sim PTX: 42400000 instructions simulated : ctaid=(136,0,0) tid=(31,0,0)
GPGPU-Sim PTX: 42500000 instructions simulated : ctaid=(112,0,0) tid=(63,0,0)
GPGPU-Sim PTX: 42600000 instructions simulated : ctaid=(110,0,0) tid=(127,0,0)
GPGPU-Sim uArch: cycles simulated: 75500  inst.: 42553728 (ipc=563.6) sim_rate=518947 (inst/sec) elapsed = 0:0:01:22 / Sun Feb 28 21:31:39 2016
GPGPU-Sim uArch: Shader 4 finished CTA #3 (75560,0), 7 CTAs running
GPGPU-Sim uArch: Shader 13 finished CTA #3 (75560,0), 7 CTAs running
GPGPU-Sim uArch: core:  4, cta: 3 initialized @(75561,0)
GPGPU-Sim uArch: core: 13, cta: 3 initialized @(75561,0)
GPGPU-Sim PTX: 42700000 instructions simulated : ctaid=(110,0,0) tid=(127,0,0)
GPGPU-Sim uArch: Shader 8 finished CTA #3 (75657,0), 7 CTAs running
GPGPU-Sim uArch: core:  8, cta: 3 initialized @(75658,0)
GPGPU-Sim uArch: Shader 6 finished CTA #2 (75707,0), 7 CTAs running
GPGPU-Sim uArch: core:  6, cta: 2 initialized @(75708,0)
GPGPU-Sim uArch: Shader 5 finished CTA #3 (75831,0), 7 CTAs running
GPGPU-Sim uArch: core:  5, cta: 3 initialized @(75832,0)
GPGPU-Sim PTX: 42800000 instructions simulated : ctaid=(153,0,0) tid=(31,0,0)
GPGPU-Sim PTX: 42900000 instructions simulated : ctaid=(90,0,0) tid=(63,0,0)
GPGPU-Sim PTX: 43000000 instructions simulated : ctaid=(141,0,0) tid=(127,0,0)
GPGPU-Sim uArch: Shader 1 finished CTA #3 (76304,0), 7 CTAs running
GPGPU-Sim uArch: core:  1, cta: 3 initialized @(76305,0)
GPGPU-Sim PTX: 43100000 instructions simulated : ctaid=(101,0,0) tid=(31,0,0)
GPGPU-Sim uArch: cycles simulated: 76500  inst.: 43128864 (ipc=563.8) sim_rate=519624 (inst/sec) elapsed = 0:0:01:23 / Sun Feb 28 21:31:40 2016
GPGPU-Sim PTX: 43200000 instructions simulated : ctaid=(97,0,0) tid=(31,0,0)
GPGPU-Sim uArch: Shader 14 finished CTA #3 (76581,0), 7 CTAs running
GPGPU-Sim uArch: core: 14, cta: 3 initialized @(76582,0)
GPGPU-Sim PTX: 43300000 instructions simulated : ctaid=(134,0,0) tid=(63,0,0)
GPGPU-Sim PTX: 43400000 instructions simulated : ctaid=(150,0,0) tid=(127,0,0)
GPGPU-Sim uArch: cycles simulated: 77000  inst.: 43429856 (ipc=564.0) sim_rate=517022 (inst/sec) elapsed = 0:0:01:24 / Sun Feb 28 21:31:41 2016
GPGPU-Sim PTX: 43500000 instructions simulated : ctaid=(138,0,0) tid=(95,0,0)
GPGPU-Sim PTX: 43600000 instructions simulated : ctaid=(83,0,0) tid=(95,0,0)
GPGPU-Sim PTX: 43700000 instructions simulated : ctaid=(72,0,0) tid=(63,0,0)
GPGPU-Sim PTX: 43800000 instructions simulated : ctaid=(137,0,0) tid=(127,0,0)
GPGPU-Sim PTX: 43900000 instructions simulated : ctaid=(72,0,0) tid=(127,0,0)
GPGPU-Sim uArch: Shader 3 finished CTA #3 (77769,0), 7 CTAs running
GPGPU-Sim uArch: core:  3, cta: 3 initialized @(77770,0)
[...]
max_icnt2sh_latency = 348011 
mrq_lat_table:121894 	3836 	6066 	14058 	44243 	70635 	93576 	66295 	16189 	712 	5 	0 	0 	0 	0 	0 	0 	0 	0 	0 	0 	0 	0 	0 	0 	0 	0 	0 	0 	0 	0 	0 	
dq_lat_table:0 	0 	0 	0 	0 	0 	0 	0 	0 	0 	0 	0 	0 	0 	0 	0 	0 	0 	0 	0 	0 	0 	0 	0 	0 	0 	0 	0 	0 	0 	0 	0 	
mf_lat_table:0 	0 	0 	0 	0 	0 	0 	131 	44808 	250151 	17422 	3 	0 	0 	0 	0 	0 	0 	0 	0 	0 	0 	0 	0 	0 	0 	0 	0 	0 	0 	0 	0 	
icnt2mem_lat_table:0 	0 	0 	22686 	10488 	22092 	74946 	83055 	94994 	4373 	1 	0 	0 	0 	0 	0 	0 	0 	0 	0 	0 	0 	0 	0 	
icnt2sh_lat_table:0 	0 	0 	130821 	54522 	2165 	7 	0 	0 	0 	0 	118 	1476 	3139 	6181 	12033 	24499 	49337 	28217 	0 	0 	0 	0 	0 	
mf_lat_pw_table:0 	0 	0 	0 	0 	0 	0 	1 	55 	638 	0 	0 	0 	0 	0 	0 	0 	0 	0 	0 	0 	0 	0 	0 	0 	0 	0 	0 	0 	0 	0 	0 	
maximum concurrent accesses to same row:
dram[0]:        31        32        16        14        28        26        40        34        20        14        28        30        32        30        16        20 
dram[1]:        27        29        28        14        30        20        32        32        30        14        28        26        31        30        32        18 
dram[2]:        32        31        20        24        20        24        36        34        18        24        28        30        32        30        22        18 
dram[3]:        30        28        14        13        20        26        36        32        18        10        30        26        32        30        14        16 
dram[4]:        30        29        18        22        22        24        34        34        20        20        30        32        30        30        20        20 
dram[5]:        26        28        22        22        20        24        32        32        20        22        28        28        30        30        22        20 
maximum service time to same row:
dram[0]:      3399      3195      4399      3834      3818      3060      2478      2481      6164      5148      2582      2582      3219      3216      6324      4738 
dram[1]:      2355      3196      3725      3909      3824      2442      2444      2533      5585      4113      2434      2545      3078      3031      5945      4764 
dram[2]:      2205      3443      4146      3843      2559      2425      2428      2475      4807      5273      2496      3119      2971      2960      4674      4769 
dram[3]:      1986      3314      3753      3770      2416      2433      2418      2502      4831      4716      2521      2449      3028      2725      4690      4612 
dram[4]:      3212      3313      4260      4034      2702      2400      2421      2467      4332      5151      2540      2557      3210      3261      4672      4446 
dram[5]:      3210      3237      3529      3528      3000      2765      2442      2444      4637      4091      2430      2491      3017      2986      4494      4406 
average row accesses per activate:
dram[0]:  1.584701  1.565458  1.555326  1.548387  1.580195  1.571429  1.602802  1.588337  1.556463  1.547514  1.578475  1.576844  1.580111  1.577387  1.592760  1.579020 
dram[1]:  1.547595  1.556319  1.547856  1.545735  1.553119  1.559532  1.567660  1.594981  1.526860  1.530947  1.557522  1.564979  1.559114  1.569273  1.544902  1.554876 
dram[2]:  1.575547  1.569796  1.551582  1.560706  1.575800  1.581590  1.603364  1.603926  1.553820  1.552239  1.576844  1.588337  1.589993  1.583939  1.579020  1.592760 
dram[3]:  1.549180  1.547286  1.547325  1.528455  1.540449  1.544433  1.585586  1.568735  1.553293  1.544902  1.564979  1.566051  1.552239  1.566051  1.546468  1.548038 
dram[4]:  1.581444  1.572519  1.559627  1.544676  1.571429  1.576642  1.591652  1.605051  1.570350  1.554876  1.583391  1.573590  1.598882  1.573049  1.585036  1.573049 
dram[5]:  1.561295  1.557924  1.532088  1.540984  1.556319  1.545485  1.579020  1.594981  1.529923  1.548562  1.564979  1.551186  1.565515  1.561775  1.556992  1.552239 
average row locality = 437509/279528 = 1.565171
number of total memory accesses made:
dram[0]:         0         0         0         0         0         0         0         0         0         0         0         0         0         0         0         0 
dram[1]:         0         0         0         0         0         0         0         0         0         0         0         0         0         0         0         0 
dram[2]:         0         0         0         0         0         0         0         0         0         0         0         0         0         0         0         0 
dram[3]:         0         0         0         0         0         0         0         0         0         0         0         0         0         0         0         0 
dram[4]:         0         0         0         0         0         0         0         0         0         0         0         0         0         0         0         0 
dram[5]:         0         0         0         0         0         0         0         0         0         0         0         0         0         0         0         0 
total accesses: 0
min_bank_accesses = 0!
min_chip_accesses = 0!
number of total read accesses:
dram[0]:      3251      3246      3232      3232      3242      3242      3264      3264      3264      3264      3264      3264      3264      3264      3264      3264 
dram[1]:      3250      3246      3232      3232      3242      3242      3264      3264      3264      3264      3264      3264      3264      3264      3264      3264 
dram[2]:      3250      3246      3232      3232      3242      3244      3264      3264      3264      3264      3264      3264      3264      3264      3264      3264 
dram[3]:      3250      3246      3232      3232      3242      3244      3264      3264      3264      3264      3264      3264      3264      3264      3264      3264 
dram[4]:      3248      3246      3232      3232      3242      3244      3264      3264      3264      3264      3264      3264      3264      3264      3264      3264 
dram[5]:      3248      3246      3232      3232      3242      3244      3264      3264      3264      3264      3264      3264      3264      3264      3264      3264 
total reads: 312509
bank skew: 3264/3232 = 1.01
chip skew: 52086/52084 = 1.00
number of total write accesses:
dram[0]:      1286      1286      1280      1280      1290      1290      1312      1312      1312      1312      1312      1312      1312      1312      1312      1312 
dram[1]:      1286      1286      1280      1280      1290      1290      1312      1312      1312      1312      1312      1312      1312      1312      1312      1312 
dram[2]:      1286      1286      1280      1280      1290      1292      1312      1312      1312      1312      1312      1312      1312      1312      1312      1312 
dram[3]:      1286      1286      1280      1280      1290      1292      1312      1312      1312      1312      1312      1312      1312      1312      1312      1312 
dram[4]:      1286      1286      1280      1280      1290      1292      1312      1312      1312      1312      1312      1312      1312      1312      1312      1312 
dram[5]:      1286      1286      1280      1280      1290      1292      1312      1312      1312      1312      1312      1312      1312      1312      1312      1312 
total reads: 125000
bank skew: 1312/1280 = 1.02
chip skew: 20834/20832 = 1.00
average mf latency per bank:
dram[0]:        539       532       542       541       543       542       555       553       542       532       536       527       549       546       564       557
dram[1]:        498       497       507       506       513       508       515       514       507       503       501       504       511       506       519       522
dram[2]:        500       504       510       517       509       519       513       532       503       516       503       511       507       520       525       537
dram[3]:        478       472       483       481       481       480       491       488       478       474       483       475       482       484       493       496
dram[4]:        496       483       499       488       506       499       505       498       497       489       500       489       500       495       520       515
dram[5]:        487       484       492       499       498       500       501       505       489       495       485       487       495       498       511       513
maximum mf latency per bank:
dram[0]:       1703      1422      1620      1518      1933      1572      2097      1547      1855      1485      1681      1631      1618      1498      2056      1509
dram[1]:       1366      1401      2158      1434      1718      1506      1431      1449      1513      1485      1413      1459      1579      1447      1476      1456
dram[2]:       1796      1474      1588      1501      1416      1546      1607      1625      1497      1813      1805      1803      1741      1693      1498      1553
dram[3]:       1434      1508      1532      1641      1621      1817      1482      1376      1664      1369      1726      1307      1362      1478      1573      1574
dram[4]:       1721      1430      1368      1678      1700      1511      1517      1478      1595      1798      1607      1611      1492      1794      1541      1431
dram[5]:       1469      1410      1469      1335      1403      1408      1497      1504      1346      1599      1371      1510      1606      1569      1769      1598

Number of Memory Banks Accessed per Memory Operation per Warp (from 0):
0	0	0	0	0	0	0	0	0	0	0	0	0	0	0	0	0	0	0	0	0	0	0	0	0	0	0	0	0	0	0	0	0	0	0	0	0	0	0	0	0	0	0	0	0	0	0	0	0	0	0	0	0	0	0	0	0	0	0	0	0	0	0	0	0	0	0	0	0	0	0	0	0	0	0	0	0	0	0	0	0	0	0	0	0	0	0	0	0	0	0	0	0	0	0	0	
Average # of Memory Banks Accessed per Memory Operation per Warp=-nan

position of mrq chosen
0	0	0	0	0	0	0	0	0	0	0	0	0	0	0	0	

average position of mrq chosen = -nan
Memory Partition 0: 
Cache L2_bank_000:
MSHR contents

Cache L2_bank_001:
MSHR contents

In Dram Latency Queue (total = 0): 
DRAM[0]: 16 bks, busW=4 BL=8 CL=12, tRRD=2 tCCD=6, tRCD=12 tRAS=28 tRP=12 tRC=40
n_cmd=459375 n_nop=220903 n_act=46327 n_pre=46311 n_req=72917 n_rd=104170 n_write=41664 bw_util=0.6349
n_activity=446000 dram_eff=0.654
bk0: 6502a 224234i bk1: 6492a 216734i bk2: 6464a 211496i bk3: 6464a 207066i bk4: 6484a 202243i bk5: 6484a 193306i bk6: 6528a 182167i bk7: 6528a 174729i bk8: 6528a 216933i bk9: 6528a 212528i bk10: 6528a 208123i bk11: 6528a 204384i bk12: 6528a 195771i bk13: 6528a 189361i bk14: 6528a 179639i bk15: 6528a 167543i 
dram_util_bins: 0 0 0 0 0 0 0 0 0 0
dram_eff_bins: 0 0 0 0 0 0 0 0 0 0
mrqq: max=16 avg=14.7136
Memory Partition 1: 
Cache L2_bank_002:
MSHR contents

Cache L2_bank_003:
MSHR contents

In Dram Latency Queue (total = 0): 
DRAM[1]: 16 bks, busW=4 BL=8 CL=12, tRRD=2 tCCD=6, tRCD=12 tRAS=28 tRP=12 tRC=40
n_cmd=459375 n_nop=219773 n_act=46893 n_pre=46877 n_req=72916 n_rd=104168 n_write=41664 bw_util=0.6349
n_activity=447599 dram_eff=0.6516
bk0: 6500a 219780i bk1: 6492a 214700i bk2: 6464a 208334i bk3: 6464a 201017i bk4: 6484a 197143i bk5: 6484a 190125i bk6: 6528a 179755i bk7: 6528a 171286i bk8: 6528a 213556i bk9: 6528a 206896i bk10: 6528a 203276i bk11: 6528a 199471i bk12: 6528a 196178i bk13: 6528a 188181i bk14: 6528a 178555i bk15: 6528a 168506i 
dram_util_bins: 0 0 0 0 0 0 0 0 0 0
dram_eff_bins: 0 0 0 0 0 0 0 0 0 0
mrqq: max=16 avg=14.377
Memory Partition 2: 
Cache L2_bank_004:
MSHR contents

Cache L2_bank_005:
MSHR contents

In Dram Latency Queue (total = 0): 
DRAM[2]: 16 bks, busW=4 BL=8 CL=12, tRRD=2 tCCD=6, tRCD=12 tRAS=28 tRP=12 tRC=40
n_cmd=459375 n_nop=221091 n_act=46230 n_pre=46214 n_req=72920 n_rd=104172 n_write=41668 bw_util=0.6349
n_activity=445651 dram_eff=0.6545
bk0: 6500a 222420i bk1: 6492a 220373i bk2: 6464a 209566i bk3: 6464a 204711i bk4: 6484a 201754i bk5: 6488a 193116i bk6: 6528a 184151i bk7: 6528a 172632i bk8: 6528a 220420i bk9: 6528a 210453i bk10: 6528a 210705i bk11: 6528a 202580i bk12: 6528a 195438i bk13: 6528a 191655i bk14: 6528a 181120i bk15: 6528a 173101i 
dram_util_bins: 0 0 0 0 0 0 0 0 0 0
dram_eff_bins: 0 0 0 0 0 0 0 0 0 0
mrqq: max=16 avg=14.6113
Memory Partition 3: 
Cache L2_bank_006:
MSHR contents

Cache L2_bank_007:
MSHR contents
MSHR: tag=0x80f21180, atomic=0 1 entries : 0x7f5cbcf28d10 :  mf: uid=7730229, sid08:w03, part=3, addr=0x80f21180, load , size=128, unknown  status = IN_PARTITION_DRAM (348009), 

In Dram Latency Queue (total = 0): 
DRAM[3]: 16 bks, busW=4 BL=8 CL=12, tRRD=2 tCCD=6, tRCD=12 tRAS=28 tRP=12 tRC=40
n_cmd=459375 n_nop=219659 n_act=46946 n_pre=46930 n_req=72920 n_rd=104172 n_write=41668 bw_util=0.6349
n_activity=448121 dram_eff=0.6509
bk0: 6500a 220841i bk1: 6492a 214621i bk2: 6464a 208146i bk3: 6464a 199477i bk4: 6484a 197414i bk5: 6488a 189736i bk6: 6528a 182459i bk7: 6528a 175294i bk8: 6528a 213649i bk9: 6528a 213826i bk10: 6528a 206713i bk11: 6528a 200005i bk12: 6528a 195769i bk13: 6528a 185300i bk14: 6528a 178262i bk15: 6528a 170388i 
dram_util_bins: 0 0 0 0 0 0 0 0 0 0
dram_eff_bins: 0 0 0 0 0 0 0 0 0 0
mrqq: max=16 avg=14.3983
Memory Partition 4: 
Cache L2_bank_008:
MSHR contents

Cache L2_bank_009:
MSHR contents

In Dram Latency Queue (total = 0): 
DRAM[4]: 16 bks, busW=4 BL=8 CL=12, tRRD=2 tCCD=6, tRCD=12 tRAS=28 tRP=12 tRC=40
n_cmd=459375 n_nop=221011 n_act=46272 n_pre=46256 n_req=72918 n_rd=104168 n_write=41668 bw_util=0.6349
n_activity=445629 dram_eff=0.6545
bk0: 6496a 222176i bk1: 6492a 213578i bk2: 6464a 209357i bk3: 6464a 203212i bk4: 6484a 201385i bk5: 6488a 190878i bk6: 6528a 185280i bk7: 6528a 176264i bk8: 6528a 217995i bk9: 6528a 207850i bk10: 6528a 211138i bk11: 6528a 205890i bk12: 6528a 198883i bk13: 6528a 187944i bk14: 6528a 180507i bk15: 6528a 164719i 
dram_util_bins: 0 0 0 0 0 0 0 0 0 0
dram_eff_bins: 0 0 0 0 0 0 0 0 0 0
mrqq: max=16 avg=14.3567
Memory Partition 5: 
Cache L2_bank_010:
MSHR contents

Cache L2_bank_011:
MSHR contents

In Dram Latency Queue (total = 0): 
DRAM[5]: 16 bks, busW=4 BL=8 CL=12, tRRD=2 tCCD=6, tRCD=12 tRAS=28 tRP=12 tRC=40
n_cmd=459375 n_nop=219835 n_act=46860 n_pre=46844 n_req=72918 n_rd=104168 n_write=41668 bw_util=0.6349
n_activity=448158 dram_eff=0.6508
bk0: 6496a 221297i bk1: 6492a 211271i bk2: 6464a 208443i bk3: 6464a 200150i bk4: 6484a 197964i bk5: 6488a 187889i bk6: 6528a 183624i bk7: 6528a 172929i bk8: 6528a 217724i bk9: 6528a 208499i bk10: 6528a 208996i bk11: 6528a 203617i bk12: 6528a 196400i bk13: 6528a 185486i bk14: 6528a 177963i bk15: 6528a 171066i 
dram_util_bins: 0 0 0 0 0 0 0 0 0 0
dram_eff_bins: 0 0 0 0 0 0 0 0 0 0
mrqq: max=16 avg=14.4325

========= L2 cache stats =========
L2_cache_bank[0]: Access = 26087, Miss = 26045, Miss_rate = 0.998, Pending_hits = 9, Reservation_fails = 37045
L2_cache_bank[1]: Access = 26040, Miss = 26040, Miss_rate = 1.000, Pending_hits = 0, Reservation_fails = 43890
L2_cache_bank[2]: Access = 26072, Miss = 26044, Miss_rate = 0.999, Pending_hits = 6, Reservation_fails = 20283
L2_cache_bank[3]: Access = 26040, Miss = 26040, Miss_rate = 1.000, Pending_hits = 0, Reservation_fails = 27665
L2_cache_bank[4]: Access = 26072, Miss = 26044, Miss_rate = 0.999, Pending_hits = 6, Reservation_fails = 28989
L2_cache_bank[5]: Access = 26042, Miss = 26042, Miss_rate = 1.000, Pending_hits = 0, Reservation_fails = 34312
L2_cache_bank[6]: Access = 26072, Miss = 26044, Miss_rate = 0.999, Pending_hits = 6, Reservation_fails = 29936
L2_cache_bank[7]: Access = 26042, Miss = 26042, Miss_rate = 1.000, Pending_hits = 0, Reservation_fails = 36712
L2_cache_bank[8]: Access = 26042, Miss = 26042, Miss_rate = 1.000, Pending_hits = 0, Reservation_fails = 24892
L2_cache_bank[9]: Access = 26042, Miss = 26042, Miss_rate = 1.000, Pending_hits = 0, Reservation_fails = 31083
L2_cache_bank[10]: Access = 26042, Miss = 26042, Miss_rate = 1.000, Pending_hits = 0, Reservation_fails = 18980
L2_cache_bank[11]: Access = 26042, Miss = 26042, Miss_rate = 1.000, Pending_hits = 0, Reservation_fails = 28836
L2_total_cache_accesses = 312635
L2_total_cache_misses = 312509
L2_total_cache_miss_rate = 0.9996
L2_total_cache_pending_hits = 27
L2_total_cache_reservation_fails = 362623
L2_total_cache_breakdown:
	L2_cache_stats_breakdown[GLOBAL_ACC_R][MISS] = 187500
	L2_cache_stats_breakdown[GLOBAL_ACC_R][RESERVATION_FAIL] = 218173
	L2_cache_stats_breakdown[CONST_ACC_R][HIT] = 11
	L2_cache_stats_breakdown[CONST_ACC_R][HIT_RESERVED] = 3
	L2_cache_stats_breakdown[CONST_ACC_R][MISS] = 1
	L2_cache_stats_breakdown[CONST_ACC_R][RESERVATION_FAIL] = 109
	L2_cache_stats_breakdown[GLOBAL_ACC_W][MISS] = 125000
	L2_cache_stats_breakdown[GLOBAL_ACC_W][RESERVATION_FAIL] = 143578
	L2_cache_stats_breakdown[INST_ACC_R][HIT] = 88
	L2_cache_stats_breakdown[INST_ACC_R][HIT_RESERVED] = 24
	L2_cache_stats_breakdown[INST_ACC_R][MISS] = 8
	L2_cache_stats_breakdown[INST_ACC_R][RESERVATION_FAIL] = 763
L2_cache_data_port_util = 0.000
L2_cache_fill_port_util = 0.299

icnt_total_pkts_mem_to_simt=1063145
icnt_total_pkts_simt_to_mem=812635
LD_mem_lat_dist  0 0 0 0 0 0 0 0 0 0 0 0 0 0 0 0 0 0 0 0 0 0 0 0 0 0 0
ST_mem_lat_dist  0 0 0 0 0 0 0 0 0 0 0 0 0 0 0 0 0 0 0 0 0 0 0 0 0 0 0
----------------------------Interconnect-DETAILS--------------------------------
Class 0:
Packet latency average = 52.1872
	minimum = 6
	maximum = 768
Network latency average = 35.0114
	minimum = 6
	maximum = 747
Slowest packet = 4185
Flit latency average = 25.9484
	minimum = 6
	maximum = 747
Slowest flit = 12483
Fragmentation average = 0.549105
	minimum = 0
	maximum = 508
Injected packet rate average = 0.0665441
	minimum = 0.0580124 (at node 3)
	maximum = 0.0749601 (at node 15)
Accepted packet rate average = 0.0665441
	minimum = 0.0580124 (at node 3)
	maximum = 0.0749601 (at node 15)
Injected flit rate average = 0.199629
	minimum = 0.150791 (at node 3)
	maximum = 0.254994 (at node 15)
Accepted flit rate average= 0.199629
	minimum = 0.194545 (at node 16)
	maximum = 0.209978 (at node 2)
Injected packet length average = 2.99995
Accepted packet length average = 2.99995
Total in-flight flits = 0 (0 measured)
====== Overall Traffic Statistics ======
====== Traffic class 0 ======
Packet latency average = 52.1872 (1 samples)
	minimum = 6 (1 samples)
	maximum = 768 (1 samples)
Network latency average = 35.0114 (1 samples)
	minimum = 6 (1 samples)
	maximum = 747 (1 samples)
Flit latency average = 25.9484 (1 samples)
	minimum = 6 (1 samples)
	maximum = 747 (1 samples)
Fragmentation average = 0.549105 (1 samples)
	minimum = 0 (1 samples)
	maximum = 508 (1 samples)
Injected packet rate average = 0.0665441 (1 samples)
	minimum = 0.0580124 (1 samples)
	maximum = 0.0749601 (1 samples)
Accepted packet rate average = 0.0665441 (1 samples)
	minimum = 0.0580124 (1 samples)
	maximum = 0.0749601 (1 samples)
Injected flit rate average = 0.199629 (1 samples)
	minimum = 0.150791 (1 samples)
	maximum = 0.254994 (1 samples)
Accepted flit rate average = 0.199629 (1 samples)
	minimum = 0.194545 (1 samples)
	maximum = 0.209978 (1 samples)
Injected packet size average = 2.99995 (1 samples)
Accepted packet size average = 2.99995 (1 samples)
Hops average = 1 (1 samples)
----------------------------END-of-Interconnect-DETAILS-------------------------


gpgpu_simulation_time = 0 days, 0 hrs, 7 min, 7 sec (427 sec)
gpgpu_simulation_rate = 458505 (inst/sec)
gpgpu_simulation_rate = 815 (cycle/sec)
GPGPU-Sim: synchronize waiting for inactive GPU simulation
GPGPU-Sim API: Stream Manager State
GPGPU-Sim: detected inactive GPU simulation thread
Options count             : 4000000     
BlackScholesGPU() time    : 425671.562500 msec
Effective memory bandwidth: 0.000094 GB/s
Gigaoptions per second    : 0.000009     
Reading back GPU results...
Checking the results...
...running CPU calculations.
Comparing the results...
L1 norm: 1.729535E-07
Max absolute error: 1.192093E-05
TEST PASSED
Shutting down...
...releasing GPU memory.
...releasing CPU memory.
Shutdown done.
GPGPU-Sim: exit_simulation called
GPGPU-Sim: simulation thread signaled exit

Press ENTER to exit...
