

        *** GPGPU-Sim Simulator Version 3.2.2  [build 0] ***


GPGPU-Sim PTX: simulation mode 0 (can change with PTX_SIM_MODE_FUNC environment variable:
               1=functional simulation only, 0=detailed performance simulator)
GPGPU-Sim: Configuration options:

-network_mode                           1 # Interconnection network mode
-inter_config_file   config_fermi_islip.icnt # Interconnection network config file
-gpgpu_ptx_use_cuobjdump                    1 # Use cuobjdump to extract ptx and sass from binaries
-gpgpu_experimental_lib_support                    0 # Try to extract code from cuda libraries [Broken because of unknown cudaGetExportTable]
-gpgpu_ptx_convert_to_ptxplus                    0 # Convert SASS (native ISA) to ptxplus and run ptxplus
-gpgpu_ptx_force_max_capability                   20 # Force maximum compute capability
-gpgpu_ptx_inst_debug_to_file                    0 # Dump executed instructions' debug information to file
-gpgpu_ptx_inst_debug_file       inst_debug.txt # Executed instructions' debug output file
-gpgpu_ptx_inst_debug_thread_uid                    1 # Thread UID for executed instructions' debug output
-gpgpu_simd_model                       1 # 1 = post-dominator
-gpgpu_shader_core_pipeline              1536:32 # shader core pipeline config, i.e., {<nthread>:<warpsize>}
-gpgpu_tex_cache:l1  4:128:24,L:R:m:N:L,F:128:4,128:2 # per-shader L1 texture cache  (READ-ONLY) config  {<nsets>:<bsize>:<assoc>,<rep>:<wr>:<alloc>:<wr_alloc>,<mshr>:<N>:<merge>,<mq>:<rf>}
-gpgpu_const_cache:l1 64:64:2,L:R:f:N:L,A:2:32,4 # per-shader L1 constant memory cache  (READ-ONLY) config  {<nsets>:<bsize>:<assoc>,<rep>:<wr>:<alloc>:<wr_alloc>,<mshr>:<N>:<merge>,<mq>} 
-gpgpu_cache:il1     4:128:4,L:R:f:N:L,A:2:32,4 # shader L1 instruction cache config  {<nsets>:<bsize>:<assoc>,<rep>:<wr>:<alloc>:<wr_alloc>,<mshr>:<N>:<merge>,<mq>} 
-gpgpu_cache:dl1     256:128:4,L:L:m:N:L,A:32:8,8 # per-shader L1 data cache config  {<nsets>:<bsize>:<assoc>,<rep>:<wr>:<alloc>:<wr_alloc>,<mshr>:<N>:<merge>,<mq> | none}
-gpgpu_cache:dl1PrefL1                 none # per-shader L1 data cache config  {<nsets>:<bsize>:<assoc>,<rep>:<wr>:<alloc>:<wr_alloc>,<mshr>:<N>:<merge>,<mq> | none}
-gpgpu_cache:dl1PreShared                 none # per-shader L1 data cache config  {<nsets>:<bsize>:<assoc>,<rep>:<wr>:<alloc>:<wr_alloc>,<mshr>:<N>:<merge>,<mq> | none}
-gmem_skip_L1D                          0 # global memory access skip L1D cache (implements -Xptxas -dlcm=cg, default=no skip)
-gpgpu_perfect_mem                      0 # enable perfect memory mode (no cache miss)
-n_regfile_gating_group                    4 # group of lanes that should be read/written together)
-gpgpu_clock_gated_reg_file                    0 # enable clock gated reg file for power calculations
-gpgpu_clock_gated_lanes                    0 # enable clock gated lanes for power calculations
-gpgpu_shader_registers                32768 # Number of registers per shader core. Limits number of concurrent CTAs. (default 8192)
-gpgpu_shader_cta                       8 # Maximum number of concurrent CTAs in shader (default 8)
-gpgpu_num_cta_barriers                   16 # Maximum number of named barriers per CTA (default 16)
-gpgpu_n_clusters                      15 # number of processing clusters
-gpgpu_n_cores_per_cluster                    1 # number of simd cores per cluster
-gpgpu_n_cluster_ejection_buffer_size                    8 # number of packets in ejection buffer
-gpgpu_n_ldst_response_buffer_size                    2 # number of response packets in ld/st unit ejection buffer
-gpgpu_shmem_size                   16384 # Size of shared memory per shader core (default 16kB)
-gpgpu_shmem_size                   49152 # Size of shared memory per shader core (default 16kB)
-gpgpu_shmem_size_PrefL1                16384 # Size of shared memory per shader core (default 16kB)
-gpgpu_shmem_size_PrefShared                16384 # Size of shared memory per shader core (default 16kB)
-gpgpu_shmem_num_banks                   32 # Number of banks in the shared memory in each shader core (default 16)
-gpgpu_shmem_limited_broadcast                    0 # Limit shared memory to do one broadcast per cycle (default on)
-gpgpu_shmem_warp_parts                    1 # Number of portions a warp is divided into for shared memory bank conflict check 
-gpgpu_warpdistro_shader                   -1 # Specify which shader core to collect the warp size distribution from
-gpgpu_warp_issue_shader                    0 # Specify which shader core to collect the warp issue distribution from
-gpgpu_local_mem_map                    1 # Mapping from local memory space address to simulated GPU physical address space (default = enabled)
-gpgpu_num_reg_banks                   16 # Number of register banks (default = 8)
-gpgpu_reg_bank_use_warp_id                    0 # Use warp ID in mapping registers to banks (default = off)
-gpgpu_operand_collector_num_units_sp                    6 # number of collector units (default = 4)
-gpgpu_operand_collector_num_units_sfu                    8 # number of collector units (default = 4)
-gpgpu_operand_collector_num_units_mem                    2 # number of collector units (default = 2)
-gpgpu_operand_collector_num_units_gen                    0 # number of collector units (default = 0)
-gpgpu_operand_collector_num_in_ports_sp                    2 # number of collector unit in ports (default = 1)
-gpgpu_operand_collector_num_in_ports_sfu                    1 # number of collector unit in ports (default = 1)
-gpgpu_operand_collector_num_in_ports_mem                    1 # number of collector unit in ports (default = 1)
-gpgpu_operand_collector_num_in_ports_gen                    0 # number of collector unit in ports (default = 0)
-gpgpu_operand_collector_num_out_ports_sp                    2 # number of collector unit in ports (default = 1)
-gpgpu_operand_collector_num_out_ports_sfu                    1 # number of collector unit in ports (default = 1)
-gpgpu_operand_collector_num_out_ports_mem                    1 # number of collector unit in ports (default = 1)
-gpgpu_operand_collector_num_out_ports_gen                    0 # number of collector unit in ports (default = 0)
-gpgpu_coalesce_arch                   13 # Coalescing arch (default = 13, anything else is off for now)
-gpgpu_num_sched_per_core                    2 # Number of warp schedulers per core
-gpgpu_max_insn_issue_per_warp                    1 # Max number of instructions that can be issued per warp in one cycle by scheduler
-gpgpu_simt_core_sim_order                    1 # Select the simulation order of cores in a cluster (0=Fix, 1=Round-Robin)
-gpgpu_pipeline_widths        2,1,1,2,1,1,2 # Pipeline widths ID_OC_SP,ID_OC_SFU,ID_OC_MEM,OC_EX_SP,OC_EX_SFU,OC_EX_MEM,EX_WB
-gpgpu_num_sp_units                     2 # Number of SP units (default=1)
-gpgpu_num_sfu_units                    1 # Number of SF units (default=1)
-gpgpu_num_mem_units                    1 # Number if ldst units (default=1) WARNING: not hooked up to anything
-gpgpu_scheduler                      gto # Scheduler configuration: < lrr | gto | two_level_active > If two_level_active:<num_active_warps>:<inner_prioritization>:<outer_prioritization>For complete list of prioritization values see shader.h enum scheduler_prioritization_typeDefault: gto
-gpgpu_dram_scheduler                    1 # 0 = fifo, 1 = FR-FCFS (defaul)
-gpgpu_dram_partition_queues              8:8:8:8 # i2$:$2d:d2$:$2i
-l2_ideal                               0 # Use a ideal L2 cache that always hit
-gpgpu_cache:dl2     64:128:8,L:B:m:W:L,A:32:4,4:0,32 # unified banked L2 data cache config  {<nsets>:<bsize>:<assoc>,<rep>:<wr>:<alloc>:<wr_alloc>,<mshr>:<N>:<merge>,<mq>}
-gpgpu_cache:dl2_texture_only                    0 # L2 cache used for texture only
-gpgpu_n_mem                            6 # number of memory modules (e.g. memory controllers) in gpu
-gpgpu_n_sub_partition_per_mchannel                    2 # number of memory subpartition in each memory module
-gpgpu_n_mem_per_ctrlr                    2 # number of memory chips per memory controller
-gpgpu_memlatency_stat                   14 # track and display latency statistics 0x2 enables MC, 0x4 enables queue logs
-gpgpu_frfcfs_dram_sched_queue_size                   16 # 0 = unlimited (default); # entries per chip
-gpgpu_dram_return_queue_size                  116 # 0 = unlimited (default); # entries per chip
-gpgpu_dram_buswidth                    4 # default = 4 bytes (8 bytes per cycle at DDR)
-gpgpu_dram_burst_length                    8 # Burst length of each DRAM request (default = 4 data bus cycle)
-dram_data_command_freq_ratio                    4 # Frequency ratio between DRAM data bus and command bus (default = 2 times, i.e. DDR)
-gpgpu_dram_timing_opt nbk=16:CCD=2:RRD=6:RCD=12:RAS=28:RP=12:RC=40: CL=12:WL=4:CDLR=5:WR=12:nbkgrp=4:CCDL=3:RTPL=2 # DRAM timing parameters = {nbk:tCCD:tRRD:tRCD:tRAS:tRP:tRC:CL:WL:tCDLR:tWR:nbkgrp:tCCDL:tRTPL}
-rop_latency                          120 # ROP queue latency (default 85)
-dram_latency                         100 # DRAM latency (default 30)
-gpgpu_mem_addr_mapping dramid@8;00000000.00000000.00000000.00000000.0000RRRR.RRRRRRRR.BBBCCCCB.CCSSSSSS # mapping memory address to dram model {dramid@<start bit>;<memory address map>}
-gpgpu_mem_addr_test                    0 # run sweep test to check address mapping for aliased address
-gpgpu_mem_address_mask                    1 # 0 = old addressing mask, 1 = new addressing mask, 2 = new add. mask + flipped bank sel and chip sel bits
-gpuwattch_xml_file  gpuwattch_gtx480.xml # GPUWattch XML file
-power_simulation_enabled                    0 # Turn on power simulator (1=On, 0=Off)
-power_per_cycle_dump                    0 # Dump detailed power output each cycle
-power_trace_enabled                    0 # produce a file for the power trace (1=On, 0=Off)
-power_trace_zlevel                     6 # Compression level of the power trace output log (0=no comp, 9=highest)
-steady_power_levels_enabled                    0 # produce a file for the steady power levels (1=On, 0=Off)
-steady_state_definition                  8:4 # allowed deviation:number of samples
-gpgpu_max_cycle                        0 # terminates gpu simulation early (0 = no limit)
-gpgpu_max_insn                         0 # terminates gpu simulation early (0 = no limit)
-gpgpu_max_cta                          0 # terminates gpu simulation early (0 = no limit)
-gpgpu_runtime_stat                   500 # display runtime statistics such as dram utilization {<freq>:<flag>}
-liveness_message_freq                    1 # Minimum number of seconds between simulation liveness messages (0 = always print)
-gpgpu_flush_l1_cache                    0 # Flush L1 cache at the end of each kernel call
-gpgpu_flush_l2_cache                    0 # Flush L2 cache at the end of each kernel call
-gpgpu_deadlock_detect                    1 # Stop the simulation at deadlock (1=on (default), 0=off)
-gpgpu_ptx_instruction_classification                    0 # if enabled will classify ptx instruction types per kernel (Max 255 kernels now)
-gpgpu_ptx_sim_mode                     0 # Select between Performance (default) or Functional simulation (1)
-gpgpu_clock_domains 700.0:700.0:700.0:924.0 # Clock Domain Frequencies in MhZ {<Core Clock>:<ICNT Clock>:<L2 Clock>:<DRAM Clock>}
-gpgpu_max_concurrent_kernel                    8 # maximum kernels that can run concurrently on GPU
-gpgpu_cflog_interval                    0 # Interval between each snapshot in control flow logger
-visualizer_enabled                     0 # Turn on visualizer output (1=On, 0=Off)
-visualizer_outputfile                 NULL # Specifies the output log file for visualizer
-visualizer_zlevel                      6 # Compression level of the visualizer output log (0=no comp, 9=highest)
-trace_enabled                          0 # Turn on traces
-trace_components                    none # comma seperated list of traces to enable. Complete list found in trace_streams.tup. Default none
-trace_sampling_core                    0 # The core which is printed using CORE_DPRINTF. Default 0
-trace_sampling_memory_partition                   -1 # The memory partition which is printed using MEMPART_DPRINTF. Default -1 (i.e. all)
-enable_ptx_file_line_stats                    1 # Turn on PTX source line statistic profiling. (1 = On)
-ptx_line_stats_filename gpgpu_inst_stats.txt # Output file for PTX source line statistics.
-save_embedded_ptx                      0 # saves ptx files embedded in binary as <n>.ptx
-keep                                   0 # keep intermediate files created by GPGPU-Sim when interfacing with external programs
-gpgpu_ptx_save_converted_ptxplus                    0 # Saved converted ptxplus to a file
-ptx_opcode_latency_int         4,13,4,5,145 # Opcode latencies for integers <ADD,MAX,MUL,MAD,DIV>Default 1,1,19,25,145
-ptx_opcode_latency_fp          4,13,4,5,39 # Opcode latencies for single precision floating points <ADD,MAX,MUL,MAD,DIV>Default 1,1,1,1,30
-ptx_opcode_latency_dp         8,19,8,8,330 # Opcode latencies for double precision floating points <ADD,MAX,MUL,MAD,DIV>Default 8,8,8,8,335
-ptx_opcode_initiation_int            1,2,2,1,8 # Opcode initiation intervals for integers <ADD,MAX,MUL,MAD,DIV>Default 1,1,4,4,32
-ptx_opcode_initiation_fp            1,2,1,1,4 # Opcode initiation intervals for single precision floating points <ADD,MAX,MUL,MAD,DIV>Default 1,1,1,1,5
-ptx_opcode_initiation_dp         8,16,8,8,130 # Opcode initiation intervals for double precision floating points <ADD,MAX,MUL,MAD,DIV>Default 8,8,8,8,130
DRAM Timing Options:
nbk                                    16 # number of banks
CCD                                     2 # column to column delay
RRD                                     6 # minimal delay between activation of rows in different banks
RCD                                    12 # row to column delay
RAS                                    28 # time needed to activate row
RP                                     12 # time needed to precharge (deactivate) row
RC                                     40 # row cycle time
CDLR                                    5 # switching from write to read (changes tWTR)
WR                                     12 # last data-in to row precharge
CL                                     12 # CAS latency
WL                                      4 # Write latency
nbkgrp                                  4 # number of bank groups
CCDL                                    3 # column to column delay between accesses to different bank groups
RTPL                                    2 # read to precharge delay between accesses to different bank groups
Total number of memory sub partition = 12
addr_dec_mask[CHIP]  = 0000000000000000 	high:64 low:0
addr_dec_mask[BK]    = 000000000000e100 	high:16 low:8
addr_dec_mask[ROW]   = 000000000fff0000 	high:28 low:16
addr_dec_mask[COL]   = 0000000000001eff 	high:13 low:0
addr_dec_mask[BURST] = 000000000000003f 	high:6 low:0
sub_partition_id_mask = 0000000000000100
GPGPU-Sim uArch: clock freqs: 700000000.000000:700000000.000000:700000000.000000:924000000.000000
GPGPU-Sim uArch: clock periods: 0.00000000142857142857:0.00000000142857142857:0.00000000142857142857:0.00000000108225108225
*** Initializing Memory Statistics ***
GPGPU-Sim uArch: interconnect node map (shaderID+MemID to icntID)
GPGPU-Sim uArch: Memory nodes ID start from index: 15
GPGPU-Sim uArch:    0   1   2   3   4
GPGPU-Sim uArch:    5   6   7   8   9
GPGPU-Sim uArch:   10  11  12  13  14
GPGPU-Sim uArch:   15  16  17  18  19
GPGPU-Sim uArch:   20  21  22  23  24
GPGPU-Sim uArch:   25  26
GPGPU-Sim uArch: interconnect node reverse map (icntID to shaderID+MemID)
GPGPU-Sim uArch: Memory nodes start from ID: 15
GPGPU-Sim uArch:    0   1   2   3   4
GPGPU-Sim uArch:    5   6   7   8   9
GPGPU-Sim uArch:   10  11  12  13  14
GPGPU-Sim uArch:   15  16  17  18  19
GPGPU-Sim uArch:   20  21  22  23  24
GPGPU-Sim uArch:   25  26
3d035f1c221dff4c1b059f7701634ea5  /sciclone/data20/adwait/applications/benchmarks/CUDA/SCP/gpgpu_ptx_sim__SCP
GPGPU-Sim uArch: performance model initialization complete.
GPGPU-Sim PTX: __cudaRegisterFatBinary, fat_cubin_handle = 1, filename=scalarProd.cu
self exe links to: /sciclone/data20/adwait/applications/benchmarks/CUDA/SCP/gpgpu_ptx_sim__SCP
Running md5sum using "md5sum /sciclone/data20/adwait/applications/benchmarks/CUDA/SCP/gpgpu_ptx_sim__SCP "
Parsing file _cuobjdump_complete_output_E5fUJc
######### cuobjdump parser ########
## Adding new section ELF
Adding arch: sm_20
Adding identifier: scalarProd.cu
## Adding new section PTX
Adding ptx filename: _cuobjdump_1.ptx
Adding arch: sm_20
Adding identifier: scalarProd.cu
Done parsing!!!
GPGPU-Sim PTX: __cudaRegisterFunction _Z13scalarProdGPUPfS_S_ii : hostFun 0x0x404ea1, fat_cubin_handle = 1
GPGPU-Sim PTX: allocating shared region for "__cuda___cuda_local_var_42258_35_non_const_accumResult32" from 0x0 to 0x1000 (shared memory space)
GPGPU-Sim PTX: instruction assembly for function '_Z13scalarProdGPUPfS_S_ii'...   done.
GPGPU-Sim PTX: finding reconvergence points for '_Z13scalarProdGPUPfS_S_ii'...
GPGPU-Sim PTX: Finding dominators for '_Z13scalarProdGPUPfS_S_ii'...
GPGPU-Sim PTX: Finding immediate dominators for '_Z13scalarProdGPUPfS_S_ii'...
GPGPU-Sim PTX: Finding postdominators for '_Z13scalarProdGPUPfS_S_ii'...
GPGPU-Sim PTX: Finding immediate postdominators for '_Z13scalarProdGPUPfS_S_ii'...
GPGPU-Sim PTX: pre-decoding instructions for '_Z13scalarProdGPUPfS_S_ii'...
GPGPU-Sim PTX: reconvergence points for _Z13scalarProdGPUPfS_S_ii...
GPGPU-Sim PTX:  1 (potential) branch divergence @  PC=0x020 (_1.ptx:70) @%p1 bra $Lt_0_6146;
GPGPU-Sim PTX:    immediate post dominator      @  PC=0x308 (_1.ptx:187) exit;
GPGPU-Sim PTX:  2 (potential) branch divergence @  PC=0x068 (_1.ptx:81) @!%p2 bra $Lt_0_6914;
GPGPU-Sim PTX:    immediate post dominator      @  PC=0x1d8 (_1.ptx:137) mov.s32 %r25, 512;
GPGPU-Sim PTX:  3 (potential) branch divergence @  PC=0x0e0 (_1.ptx:99) @%p4 bra $Lt_0_12290;
GPGPU-Sim PTX:    immediate post dominator      @  PC=0x1b0 (_1.ptx:131) st.shared.f32 [%rd6+0], %f1;
GPGPU-Sim PTX:  4 (potential) branch divergence @  PC=0x198 (_1.ptx:125) @%p5 bra $Lt_0_8194;
GPGPU-Sim PTX:    immediate post dominator      @  PC=0x1a0 (_1.ptx:126) bra.uni $Lt_0_7682;
GPGPU-Sim PTX:  5 (potential) branch divergence @  PC=0x1a0 (_1.ptx:126) bra.uni $Lt_0_7682;
GPGPU-Sim PTX:    immediate post dominator      @  PC=0x1b0 (_1.ptx:131) st.shared.f32 [%rd6+0], %f1;
GPGPU-Sim PTX:  6 (potential) branch divergence @  PC=0x1d0 (_1.ptx:135) @%p6 bra $Lt_0_7426;
GPGPU-Sim PTX:    immediate post dominator      @  PC=0x1d8 (_1.ptx:137) mov.s32 %r25, 512;
GPGPU-Sim PTX:  7 (potential) branch divergence @  PC=0x1f0 (_1.ptx:143) @%p7 bra $Lt_0_9730;
GPGPU-Sim PTX:    immediate post dominator      @  PC=0x298 (_1.ptx:169) shr.s32 %r25, %r25, 1;
GPGPU-Sim PTX:  8 (potential) branch divergence @  PC=0x290 (_1.ptx:166) @%p8 bra $Lt_0_10242;
GPGPU-Sim PTX:    immediate post dominator      @  PC=0x298 (_1.ptx:169) shr.s32 %r25, %r25, 1;
GPGPU-Sim PTX:  9 (potential) branch divergence @  PC=0x2b0 (_1.ptx:172) @%p9 bra $Lt_0_9474;
GPGPU-Sim PTX:    immediate post dominator      @  PC=0x2b8 (_1.ptx:173) @!%p3 bra $Lt_0_11010;
GPGPU-Sim PTX: 10 (potential) branch divergence @  PC=0x2b8 (_1.ptx:173) @!%p3 bra $Lt_0_11010;
GPGPU-Sim PTX:    immediate post dominator      @  PC=0x2f0 (_1.ptx:182) add.u32 %r2, %r2, %r8;
GPGPU-Sim PTX: 11 (potential) branch divergence @  PC=0x300 (_1.ptx:184) @%p10 bra $Lt_0_6658;
GPGPU-Sim PTX:    immediate post dominator      @  PC=0x308 (_1.ptx:187) exit;
GPGPU-Sim PTX: ... end of reconvergence points for _Z13scalarProdGPUPfS_S_ii
GPGPU-Sim PTX: ... done pre-decoding instructions for '_Z13scalarProdGPUPfS_S_ii'.
GPGPU-Sim PTX: finished parsing EMBEDDED .ptx file _1.ptx
Adding _cuobjdump_1.ptx with cubin handle 1
GPGPU-Sim PTX: extracting embedded .ptx to temporary file "_ptx_ya7KMU"
Running: cat _ptx_ya7KMU | sed 's/.version 1.5/.version 1.4/' | sed 's/, texmode_independent//' | sed 's/\(\.extern \.const\[1\] .b8 \w\+\)\[\]/\1\[1\]/' | sed 's/const\[.\]/const\[0\]/g' > _ptx2_FS1S7C
GPGPU-Sim PTX: generating ptxinfo using "$CUDA_INSTALL_PATH/bin/ptxas --gpu-name=sm_20 -v _ptx2_FS1S7C --output-file  /dev/null 2> _ptx_ya7KMUinfo"
GPGPU-Sim PTX: Kernel '_Z13scalarProdGPUPfS_S_ii' : regs=18, lmem=0, smem=4096, cmem=68
GPGPU-Sim PTX: removing ptxinfo using "rm -f _ptx_ya7KMU _ptx2_FS1S7C _ptx_ya7KMUinfo"
GPGPU-Sim PTX: loading globals with explicit initializers... 
GPGPU-Sim PTX: finished loading globals (0 bytes total).
GPGPU-Sim PTX: loading constants with explicit initializers...  done.
Initializing data...
...allocating CPU memory.
...allocating GPU memory.
...generating input data in CPU mem.
...copying input data to GPU mem.
Data init done.
Executing GPU kernel...
GPGPU-Sim: synchronize waiting for inactive GPU simulation
GPGPU-Sim API: Stream Manager State
GPGPU-Sim: detected inactive GPU simulation thread

GPGPU-Sim PTX: cudaLaunch for 0x0x404ea1 (mode=performance simulation) on stream 0
GPGPU-Sim PTX: pushing kernel '_Z13scalarProdGPUPfS_S_ii' to stream 0, gridDim= (128,1,1) blockDim = (256,1,1) 
kernel '_Z13scalarProdGPUPfS_S_ii' transfer to GPU hardware scheduler
GPGPU-Sim uArch: Shader 1 bind to kernel 1 '_Z13scalarProdGPUPfS_S_ii'
GPGPU-Sim uArch: CTA/core = 6, limited by: threads regs
GPGPU-Sim uArch: core:  1, cta: 0 initialized @(1,0)
GPGPU-Sim uArch: Shader 2 bind to kernel 1 '_Z13scalarProdGPUPfS_S_ii'
GPGPU-Sim uArch: core:  2, cta: 0 initialized @(1,0)
GPGPU-Sim uArch: Shader 3 bind to kernel 1 '_Z13scalarProdGPUPfS_S_ii'
GPGPU-Sim uArch: core:  3, cta: 0 initialized @(1,0)
GPGPU-Sim uArch: Shader 4 bind to kernel 1 '_Z13scalarProdGPUPfS_S_ii'
GPGPU-Sim uArch: core:  4, cta: 0 initialized @(1,0)
GPGPU-Sim uArch: Shader 5 bind to kernel 1 '_Z13scalarProdGPUPfS_S_ii'
GPGPU-Sim uArch: core:  5, cta: 0 initialized @(1,0)
GPGPU-Sim uArch: Shader 6 bind to kernel 1 '_Z13scalarProdGPUPfS_S_ii'
GPGPU-Sim uArch: core:  6, cta: 0 initialized @(1,0)
GPGPU-Sim uArch: Shader 7 bind to kernel 1 '_Z13scalarProdGPUPfS_S_ii'
GPGPU-Sim uArch: core:  7, cta: 0 initialized @(1,0)
GPGPU-Sim uArch: Shader 8 bind to kernel 1 '_Z13scalarProdGPUPfS_S_ii'
GPGPU-Sim uArch: core:  8, cta: 0 initialized @(1,0)
GPGPU-Sim uArch: Shader 9 bind to kernel 1 '_Z13scalarProdGPUPfS_S_ii'
GPGPU-Sim uArch: core:  9, cta: 0 initialized @(1,0)
GPGPU-Sim uArch: Shader 10 bind to kernel 1 '_Z13scalarProdGPUPfS_S_ii'
GPGPU-Sim uArch: core: 10, cta: 0 initialized @(1,0)
GPGPU-Sim uArch: Shader 11 bind to kernel 1 '_Z13scalarProdGPUPfS_S_ii'
GPGPU-Sim uArch: core: 11, cta: 0 initialized @(1,0)
GPGPU-Sim uArch: Shader 12 bind to kernel 1 '_Z13scalarProdGPUPfS_S_ii'
GPGPU-Sim uArch: core: 12, cta: 0 initialized @(1,0)
GPGPU-Sim uArch: Shader 13 bind to kernel 1 '_Z13scalarProdGPUPfS_S_ii'
GPGPU-Sim uArch: core: 13, cta: 0 initialized @(1,0)
GPGPU-Sim uArch: Shader 14 bind to kernel 1 '_Z13scalarProdGPUPfS_S_ii'
GPGPU-Sim uArch: core: 14, cta: 0 initialized @(1,0)
GPGPU-Sim uArch: Shader 0 bind to kernel 1 '_Z13scalarProdGPUPfS_S_ii'
GPGPU-Sim uArch: core:  0, cta: 0 initialized @(1,0)
GPGPU-Sim uArch: core:  1, cta: 1 initialized @(2,0)
GPGPU-Sim uArch: core:  2, cta: 1 initialized @(2,0)
GPGPU-Sim uArch: core:  3, cta: 1 initialized @(2,0)
GPGPU-Sim uArch: core:  4, cta: 1 initialized @(2,0)
GPGPU-Sim uArch: core:  5, cta: 1 initialized @(2,0)
GPGPU-Sim uArch: core:  6, cta: 1 initialized @(2,0)
GPGPU-Sim uArch: core:  7, cta: 1 initialized @(2,0)
GPGPU-Sim uArch: core:  8, cta: 1 initialized @(2,0)
GPGPU-Sim uArch: core:  9, cta: 1 initialized @(2,0)
GPGPU-Sim uArch: core: 10, cta: 1 initialized @(2,0)
GPGPU-Sim uArch: core: 11, cta: 1 initialized @(2,0)
GPGPU-Sim uArch: core: 12, cta: 1 initialized @(2,0)
GPGPU-Sim uArch: core: 13, cta: 1 initialized @(2,0)
GPGPU-Sim uArch: core: 14, cta: 1 initialized @(2,0)
GPGPU-Sim uArch: core:  0, cta: 1 initialized @(2,0)
GPGPU-Sim uArch: core:  1, cta: 2 initialized @(3,0)
GPGPU-Sim uArch: core:  2, cta: 2 initialized @(3,0)
GPGPU-Sim uArch: core:  3, cta: 2 initialized @(3,0)
GPGPU-Sim uArch: core:  4, cta: 2 initialized @(3,0)
GPGPU-Sim uArch: core:  5, cta: 2 initialized @(3,0)
GPGPU-Sim uArch: core:  6, cta: 2 initialized @(3,0)
GPGPU-Sim uArch: core:  7, cta: 2 initialized @(3,0)
GPGPU-Sim uArch: core:  8, cta: 2 initialized @(3,0)
GPGPU-Sim uArch: core:  9, cta: 2 initialized @(3,0)
GPGPU-Sim uArch: core: 10, cta: 2 initialized @(3,0)
GPGPU-Sim uArch: core: 11, cta: 2 initialized @(3,0)
GPGPU-Sim uArch: core: 12, cta: 2 initialized @(3,0)
GPGPU-Sim uArch: core: 13, cta: 2 initialized @(3,0)
GPGPU-Sim uArch: core: 14, cta: 2 initialized @(3,0)
GPGPU-Sim uArch: core:  0, cta: 2 initialized @(3,0)
GPGPU-Sim uArch: core:  1, cta: 3 initialized @(4,0)
GPGPU-Sim uArch: core:  2, cta: 3 initialized @(4,0)
GPGPU-Sim uArch: core:  3, cta: 3 initialized @(4,0)
GPGPU-Sim uArch: core:  4, cta: 3 initialized @(4,0)
GPGPU-Sim uArch: core:  5, cta: 3 initialized @(4,0)
GPGPU-Sim uArch: core:  6, cta: 3 initialized @(4,0)
GPGPU-Sim uArch: core:  7, cta: 3 initialized @(4,0)
GPGPU-Sim uArch: core:  8, cta: 3 initialized @(4,0)
GPGPU-Sim uArch: core:  9, cta: 3 initialized @(4,0)
GPGPU-Sim uArch: core: 10, cta: 3 initialized @(4,0)
GPGPU-Sim uArch: core: 11, cta: 3 initialized @(4,0)
GPGPU-Sim uArch: core: 12, cta: 3 initialized @(4,0)
GPGPU-Sim uArch: core: 13, cta: 3 initialized @(4,0)
GPGPU-Sim uArch: core: 14, cta: 3 initialized @(4,0)
GPGPU-Sim uArch: core:  0, cta: 3 initialized @(4,0)
GPGPU-Sim uArch: core:  1, cta: 4 initialized @(5,0)
GPGPU-Sim uArch: core:  2, cta: 4 initialized @(5,0)
GPGPU-Sim uArch: core:  3, cta: 4 initialized @(5,0)
GPGPU-Sim uArch: core:  4, cta: 4 initialized @(5,0)
GPGPU-Sim uArch: core:  5, cta: 4 initialized @(5,0)
GPGPU-Sim uArch: core:  6, cta: 4 initialized @(5,0)
GPGPU-Sim uArch: core:  7, cta: 4 initialized @(5,0)
GPGPU-Sim uArch: core:  8, cta: 4 initialized @(5,0)
GPGPU-Sim uArch: core:  9, cta: 4 initialized @(5,0)
GPGPU-Sim uArch: core: 10, cta: 4 initialized @(5,0)
GPGPU-Sim uArch: core: 11, cta: 4 initialized @(5,0)
GPGPU-Sim uArch: core: 12, cta: 4 initialized @(5,0)
GPGPU-Sim uArch: core: 13, cta: 4 initialized @(5,0)
GPGPU-Sim uArch: core: 14, cta: 4 initialized @(5,0)
GPGPU-Sim uArch: core:  0, cta: 4 initialized @(5,0)
GPGPU-Sim uArch: core:  1, cta: 5 initialized @(6,0)
GPGPU-Sim uArch: core:  2, cta: 5 initialized @(6,0)
GPGPU-Sim uArch: core:  3, cta: 5 initialized @(6,0)
GPGPU-Sim uArch: core:  4, cta: 5 initialized @(6,0)
GPGPU-Sim uArch: core:  5, cta: 5 initialized @(6,0)
GPGPU-Sim uArch: core:  6, cta: 5 initialized @(6,0)
GPGPU-Sim uArch: core:  7, cta: 5 initialized @(6,0)
GPGPU-Sim uArch: core:  8, cta: 5 initialized @(6,0)
GPGPU-Sim uArch: core:  9, cta: 5 initialized @(6,0)
GPGPU-Sim uArch: core: 10, cta: 5 initialized @(6,0)
GPGPU-Sim uArch: core: 11, cta: 5 initialized @(6,0)
GPGPU-Sim uArch: core: 12, cta: 5 initialized @(6,0)
GPGPU-Sim uArch: core: 13, cta: 5 initialized @(6,0)
GPGPU-Sim uArch: core: 14, cta: 5 initialized @(6,0)
GPGPU-Sim uArch: core:  0, cta: 5 initialized @(6,0)
GPGPU-Sim uArch: cycles simulated: 500  inst.: 46080 (ipc=92.2) sim_rate=23040 (inst/sec) elapsed = 0:0:00:02 / Sun Mar  6 05:31:34 2016
GPGPU-Sim PTX: 100000 instructions simulated : ctaid=(83,0,0) tid=(63,0,0)
GPGPU-Sim PTX: 200000 instructions simulated : ctaid=(41,0,0) tid=(95,0,0)
GPGPU-Sim PTX: 300000 instructions simulated : ctaid=(86,0,0) tid=(95,0,0)
GPGPU-Sim uArch: cycles simulated: 1000  inst.: 341728 (ipc=341.7) sim_rate=85432 (inst/sec) elapsed = 0:0:00:04 / Sun Mar  6 05:31:36 2016
GPGPU-Sim PTX: 400000 instructions simulated : ctaid=(80,0,0) tid=(191,0,0)
GPGPU-Sim PTX: 500000 instructions simulated : ctaid=(69,0,0) tid=(95,0,0)
GPGPU-Sim PTX: 600000 instructions simulated : ctaid=(35,0,0) tid=(31,0,0)
GPGPU-Sim PTX: 700000 instructions simulated : ctaid=(68,0,0) tid=(223,0,0)
GPGPU-Sim uArch: cycles simulated: 1500  inst.: 669760 (ipc=446.5) sim_rate=111626 (inst/sec) elapsed = 0:0:00:06 / Sun Mar  6 05:31:38 2016
GPGPU-Sim PTX: 800000 instructions simulated : ctaid=(12,0,0) tid=(223,0,0)
GPGPU-Sim PTX: 900000 instructions simulated : ctaid=(12,0,0) tid=(31,0,0)
GPGPU-Sim uArch: cycles simulated: 2000  inst.: 886080 (ipc=443.0) sim_rate=126582 (inst/sec) elapsed = 0:0:00:07 / Sun Mar  6 05:31:39 2016
GPGPU-Sim PTX: 1000000 instructions simulated : ctaid=(87,0,0) tid=(223,0,0)
GPGPU-Sim uArch: cycles simulated: 2500  inst.: 971808 (ipc=388.7) sim_rate=121476 (inst/sec) elapsed = 0:0:00:08 / Sun Mar  6 05:31:40 2016
GPGPU-Sim PTX: 1100000 instructions simulated : ctaid=(83,0,0) tid=(63,0,0)
GPGPU-Sim uArch: cycles simulated: 3000  inst.: 1084096 (ipc=361.4) sim_rate=120455 (inst/sec) elapsed = 0:0:00:09 / Sun Mar  6 05:31:41 2016
GPGPU-Sim PTX: 1200000 instructions simulated : ctaid=(88,0,0) tid=(31,0,0)
GPGPU-Sim PTX: 1300000 instructions simulated : ctaid=(13,0,0) tid=(127,0,0)
GPGPU-Sim uArch: cycles simulated: 4000  inst.: 1237472 (ipc=309.4) sim_rate=123747 (inst/sec) elapsed = 0:0:00:10 / Sun Mar  6 05:31:42 2016
GPGPU-Sim PTX: 1400000 instructions simulated : ctaid=(73,0,0) tid=(31,0,0)
GPGPU-Sim uArch: cycles simulated: 4500  inst.: 1378400 (ipc=306.3) sim_rate=125309 (inst/sec) elapsed = 0:0:00:11 / Sun Mar  6 05:31:43 2016
GPGPU-Sim PTX: 1500000 instructions simulated : ctaid=(38,0,0) tid=(159,0,0)
GPGPU-Sim PTX: 1600000 instructions simulated : ctaid=(49,0,0) tid=(159,0,0)
GPGPU-Sim uArch: cycles simulated: 5000  inst.: 1534368 (ipc=306.9) sim_rate=127864 (inst/sec) elapsed = 0:0:00:12 / Sun Mar  6 05:31:44 2016
GPGPU-Sim PTX: 1700000 instructions simulated : ctaid=(10,0,0) tid=(63,0,0)
GPGPU-Sim uArch: cycles simulated: 5500  inst.: 1675712 (ipc=304.7) sim_rate=128900 (inst/sec) elapsed = 0:0:00:13 / Sun Mar  6 05:31:45 2016
GPGPU-Sim PTX: 1800000 instructions simulated : ctaid=(32,0,0) tid=(223,0,0)
GPGPU-Sim PTX: 1900000 instructions simulated : ctaid=(49,0,0) tid=(159,0,0)
GPGPU-Sim PTX: 2000000 instructions simulated : ctaid=(22,0,0) tid=(95,0,0)
GPGPU-Sim uArch: cycles simulated: 6500  inst.: 1942272 (ipc=298.8) sim_rate=138733 (inst/sec) elapsed = 0:0:00:14 / Sun Mar  6 05:31:46 2016
GPGPU-Sim PTX: 2100000 instructions simulated : ctaid=(28,0,0) tid=(255,0,0)
GPGPU-Sim PTX: 2200000 instructions simulated : ctaid=(33,0,0) tid=(31,0,0)
GPGPU-Sim uArch: cycles simulated: 7000  inst.: 2085664 (ipc=298.0) sim_rate=139044 (inst/sec) elapsed = 0:0:00:15 / Sun Mar  6 05:31:47 2016
GPGPU-Sim PTX: 2300000 instructions simulated : ctaid=(51,0,0) tid=(159,0,0)
GPGPU-Sim uArch: cycles simulated: 7500  inst.: 2243232 (ipc=299.1) sim_rate=140202 (inst/sec) elapsed = 0:0:00:16 / Sun Mar  6 05:31:48 2016
GPGPU-Sim PTX: 2400000 instructions simulated : ctaid=(40,0,0) tid=(95,0,0)
GPGPU-Sim PTX: 2500000 instructions simulated : ctaid=(22,0,0) tid=(31,0,0)
GPGPU-Sim uArch: cycles simulated: 8000  inst.: 2383296 (ipc=297.9) sim_rate=140193 (inst/sec) elapsed = 0:0:00:17 / Sun Mar  6 05:31:49 2016
GPGPU-Sim PTX: 2600000 instructions simulated : ctaid=(34,0,0) tid=(95,0,0)
GPGPU-Sim PTX: 2700000 instructions simulated : ctaid=(68,0,0) tid=(31,0,0)
GPGPU-Sim PTX: 2800000 instructions simulated : ctaid=(42,0,0) tid=(159,0,0)
GPGPU-Sim uArch: cycles simulated: 9000  inst.: 2664768 (ipc=296.1) sim_rate=148042 (inst/sec) elapsed = 0:0:00:18 / Sun Mar  6 05:31:50 2016
GPGPU-Sim PTX: 2900000 instructions simulated : ctaid=(37,0,0) tid=(159,0,0)
GPGPU-Sim uArch: cycles simulated: 9500  inst.: 2807392 (ipc=295.5) sim_rate=147757 (inst/sec) elapsed = 0:0:00:19 / Sun Mar  6 05:31:51 2016
GPGPU-Sim PTX: 3000000 instructions simulated : ctaid=(71,0,0) tid=(31,0,0)
GPGPU-Sim PTX: 3100000 instructions simulated : ctaid=(41,0,0) tid=(95,0,0)
GPGPU-Sim uArch: cycles simulated: 10000  inst.: 2969792 (ipc=297.0) sim_rate=148489 (inst/sec) elapsed = 0:0:00:20 / Sun Mar  6 05:31:52 2016
GPGPU-Sim PTX: 3200000 instructions simulated : ctaid=(57,0,0) tid=(255,0,0)
GPGPU-Sim uArch: cycles simulated: 10500  inst.: 3092256 (ipc=294.5) sim_rate=147250 (inst/sec) elapsed = 0:0:00:21 / Sun Mar  6 05:31:53 2016
GPGPU-Sim PTX: 3300000 instructions simulated : ctaid=(52,0,0) tid=(95,0,0)
GPGPU-Sim uArch: cycles simulated: 11000  inst.: 3205504 (ipc=291.4) sim_rate=145704 (inst/sec) elapsed = 0:0:00:22 / Sun Mar  6 05:31:54 2016
GPGPU-Sim PTX: 3400000 instructions simulated : ctaid=(20,0,0) tid=(223,0,0)
GPGPU-Sim PTX: 3500000 instructions simulated : ctaid=(61,0,0) tid=(31,0,0)
GPGPU-Sim PTX: 3600000 instructions simulated : ctaid=(25,0,0) tid=(191,0,0)
GPGPU-Sim uArch: cycles simulated: 12000  inst.: 3455488 (ipc=288.0) sim_rate=150238 (inst/sec) elapsed = 0:0:00:23 / Sun Mar  6 05:31:55 2016
GPGPU-Sim PTX: 3700000 instructions simulated : ctaid=(31,0,0) tid=(127,0,0)
GPGPU-Sim uArch: cycles simulated: 12500  inst.: 3587424 (ipc=287.0) sim_rate=149476 (inst/sec) elapsed = 0:0:00:24 / Sun Mar  6 05:31:56 2016
GPGPU-Sim PTX: 3800000 instructions simulated : ctaid=(67,0,0) tid=(95,0,0)
GPGPU-Sim uArch: cycles simulated: 13000  inst.: 3697088 (ipc=284.4) sim_rate=147883 (inst/sec) elapsed = 0:0:00:25 / Sun Mar  6 05:31:57 2016
GPGPU-Sim PTX: 3900000 instructions simulated : ctaid=(77,0,0) tid=(95,0,0)
GPGPU-Sim PTX: 4000000 instructions simulated : ctaid=(57,0,0) tid=(127,0,0)
GPGPU-Sim uArch: cycles simulated: 13500  inst.: 3824800 (ipc=283.3) sim_rate=147107 (inst/sec) elapsed = 0:0:00:26 / Sun Mar  6 05:31:58 2016
GPGPU-Sim PTX: 4100000 instructions simulated : ctaid=(42,0,0) tid=(63,0,0)
GPGPU-Sim PTX: 4200000 instructions simulated : ctaid=(46,0,0) tid=(95,0,0)
GPGPU-Sim PTX: 4300000 instructions simulated : ctaid=(73,0,0) tid=(31,0,0)
GPGPU-Sim uArch: cycles simulated: 14500  inst.: 4173152 (ipc=287.8) sim_rate=154561 (inst/sec) elapsed = 0:0:00:27 / Sun Mar  6 05:31:59 2016
GPGPU-Sim PTX: 4400000 instructions simulated : ctaid=(5,0,0) tid=(63,0,0)
GPGPU-Sim PTX: 4500000 instructions simulated : ctaid=(77,0,0) tid=(159,0,0)
GPGPU-Sim PTX: 4600000 instructions simulated : ctaid=(2,0,0) tid=(223,0,0)
GPGPU-Sim uArch: cycles simulated: 15000  inst.: 4393152 (ipc=292.9) sim_rate=156898 (inst/sec) elapsed = 0:0:00:28 / Sun Mar  6 05:32:00 2016
GPGPU-Sim PTX: 4700000 instructions simulated : ctaid=(18,0,0) tid=(175,0,0)
GPGPU-Sim PTX: 4800000 instructions simulated : ctaid=(74,0,0) tid=(111,0,0)
GPGPU-Sim PTX: 4900000 instructions simulated : ctaid=(84,0,0) tid=(11,0,0)
GPGPU-Sim uArch: cycles simulated: 15500  inst.: 4690552 (ipc=302.6) sim_rate=161743 (inst/sec) elapsed = 0:0:00:29 / Sun Mar  6 05:32:01 2016
GPGPU-Sim PTX: 5000000 instructions simulated : ctaid=(17,0,0) tid=(255,0,0)
GPGPU-Sim PTX: 5100000 instructions simulated : ctaid=(5,0,0) tid=(181,0,0)
GPGPU-Sim PTX: 5200000 instructions simulated : ctaid=(47,0,0) tid=(52,0,0)
GPGPU-Sim PTX: 5300000 instructions simulated : ctaid=(72,0,0) tid=(35,0,0)
GPGPU-Sim uArch: cycles simulated: 16000  inst.: 5067498 (ipc=316.7) sim_rate=168916 (inst/sec) elapsed = 0:0:00:30 / Sun Mar  6 05:32:02 2016
GPGPU-Sim PTX: 5400000 instructions simulated : ctaid=(36,0,0) tid=(254,0,0)
GPGPU-Sim PTX: 5500000 instructions simulated : ctaid=(17,0,0) tid=(12,0,0)
GPGPU-Sim PTX: 5600000 instructions simulated : ctaid=(6,0,0) tid=(57,0,0)
GPGPU-Sim uArch: cycles simulated: 16500  inst.: 5419675 (ipc=328.5) sim_rate=169364 (inst/sec) elapsed = 0:0:00:32 / Sun Mar  6 05:32:04 2016
GPGPU-Sim PTX: 5700000 instructions simulated : ctaid=(35,0,0) tid=(241,0,0)
GPGPU-Sim PTX: 5800000 instructions simulated : ctaid=(27,0,0) tid=(186,0,0)
GPGPU-Sim PTX: 5900000 instructions simulated : ctaid=(1,0,0) tid=(50,0,0)
GPGPU-Sim uArch: cycles simulated: 17000  inst.: 5677756 (ipc=334.0) sim_rate=172053 (inst/sec) elapsed = 0:0:00:33 / Sun Mar  6 05:32:05 2016
GPGPU-Sim PTX: 6000000 instructions simulated : ctaid=(10,0,0) tid=(241,0,0)
GPGPU-Sim PTX: 6100000 instructions simulated : ctaid=(16,0,0) tid=(175,0,0)
GPGPU-Sim PTX: 6200000 instructions simulated : ctaid=(7,0,0) tid=(57,0,0)
GPGPU-Sim uArch: cycles simulated: 17500  inst.: 5947829 (ipc=339.9) sim_rate=174936 (inst/sec) elapsed = 0:0:00:34 / Sun Mar  6 05:32:06 2016
GPGPU-Sim PTX: 6300000 instructions simulated : ctaid=(88,0,0) tid=(184,0,0)
GPGPU-Sim PTX: 6400000 instructions simulated : ctaid=(3,0,0) tid=(131,0,0)
GPGPU-Sim uArch: cycles simulated: 18000  inst.: 6175861 (ipc=343.1) sim_rate=176453 (inst/sec) elapsed = 0:0:00:35 / Sun Mar  6 05:32:07 2016
GPGPU-Sim PTX: 6500000 instructions simulated : ctaid=(2,0,0) tid=(99,0,0)
GPGPU-Sim PTX: 6600000 instructions simulated : ctaid=(33,0,0) tid=(3,0,0)
GPGPU-Sim PTX: 6700000 instructions simulated : ctaid=(42,0,0) tid=(227,0,0)
GPGPU-Sim PTX: 6800000 instructions simulated : ctaid=(54,0,0) tid=(99,0,0)
GPGPU-Sim uArch: cycles simulated: 19000  inst.: 6509466 (ipc=342.6) sim_rate=180818 (inst/sec) elapsed = 0:0:00:36 / Sun Mar  6 05:32:08 2016
GPGPU-Sim PTX: 6900000 instructions simulated : ctaid=(88,0,0) tid=(67,0,0)
GPGPU-Sim PTX: 7000000 instructions simulated : ctaid=(43,0,0) tid=(99,0,0)
GPGPU-Sim uArch: cycles simulated: 19500  inst.: 6715258 (ipc=344.4) sim_rate=181493 (inst/sec) elapsed = 0:0:00:37 / Sun Mar  6 05:32:09 2016
GPGPU-Sim PTX: 7100000 instructions simulated : ctaid=(74,0,0) tid=(35,0,0)
GPGPU-Sim PTX: 7200000 instructions simulated : ctaid=(22,0,0) tid=(163,0,0)
GPGPU-Sim PTX: 7300000 instructions simulated : ctaid=(27,0,0) tid=(179,0,0)
GPGPU-Sim uArch: cycles simulated: 20000  inst.: 6974330 (ipc=348.7) sim_rate=183535 (inst/sec) elapsed = 0:0:00:38 / Sun Mar  6 05:32:10 2016
GPGPU-Sim PTX: 7400000 instructions simulated : ctaid=(38,0,0) tid=(11,0,0)
GPGPU-Sim PTX: 7500000 instructions simulated : ctaid=(25,0,0) tid=(39,0,0)
GPGPU-Sim uArch: cycles simulated: 20500  inst.: 7212366 (ipc=351.8) sim_rate=184932 (inst/sec) elapsed = 0:0:00:39 / Sun Mar  6 05:32:11 2016
GPGPU-Sim PTX: 7600000 instructions simulated : ctaid=(74,0,0) tid=(117,0,0)
GPGPU-Sim PTX: 7700000 instructions simulated : ctaid=(44,0,0) tid=(38,0,0)
GPGPU-Sim uArch: cycles simulated: 21000  inst.: 7426885 (ipc=353.7) sim_rate=185672 (inst/sec) elapsed = 0:0:00:40 / Sun Mar  6 05:32:12 2016
GPGPU-Sim PTX: 7800000 instructions simulated : ctaid=(61,0,0) tid=(246,0,0)
GPGPU-Sim PTX: 7900000 instructions simulated : ctaid=(35,0,0) tid=(178,0,0)
GPGPU-Sim PTX: 8000000 instructions simulated : ctaid=(0,0,0) tid=(118,0,0)
GPGPU-Sim uArch: cycles simulated: 21500  inst.: 7645999 (ipc=355.6) sim_rate=186487 (inst/sec) elapsed = 0:0:00:41 / Sun Mar  6 05:32:13 2016
GPGPU-Sim PTX: 8100000 instructions simulated : ctaid=(31,0,0) tid=(51,0,0)
GPGPU-Sim PTX: 8200000 instructions simulated : ctaid=(36,0,0) tid=(66,0,0)
GPGPU-Sim uArch: cycles simulated: 22000  inst.: 7841241 (ipc=356.4) sim_rate=186696 (inst/sec) elapsed = 0:0:00:42 / Sun Mar  6 05:32:14 2016
GPGPU-Sim PTX: 8300000 instructions simulated : ctaid=(16,0,0) tid=(133,0,0)
GPGPU-Sim PTX: 8400000 instructions simulated : ctaid=(70,0,0) tid=(56,0,0)
GPGPU-Sim uArch: cycles simulated: 22500  inst.: 8049915 (ipc=357.8) sim_rate=187207 (inst/sec) elapsed = 0:0:00:43 / Sun Mar  6 05:32:15 2016
GPGPU-Sim PTX: 8500000 instructions simulated : ctaid=(0,0,0) tid=(123,0,0)
GPGPU-Sim PTX: 8600000 instructions simulated : ctaid=(19,0,0) tid=(245,0,0)
GPGPU-Sim uArch: cycles simulated: 23000  inst.: 8207255 (ipc=356.8) sim_rate=186528 (inst/sec) elapsed = 0:0:00:44 / Sun Mar  6 05:32:16 2016
GPGPU-Sim PTX: 8700000 instructions simulated : ctaid=(14,0,0) tid=(245,0,0)
GPGPU-Sim uArch: cycles simulated: 23500  inst.: 8350519 (ipc=355.3) sim_rate=185567 (inst/sec) elapsed = 0:0:00:45 / Sun Mar  6 05:32:17 2016
GPGPU-Sim PTX: 8800000 instructions simulated : ctaid=(10,0,0) tid=(245,0,0)
GPGPU-Sim PTX: 8900000 instructions simulated : ctaid=(51,0,0) tid=(213,0,0)
GPGPU-Sim uArch: cycles simulated: 24000  inst.: 8531959 (ipc=355.5) sim_rate=185477 (inst/sec) elapsed = 0:0:00:46 / Sun Mar  6 05:32:18 2016
GPGPU-Sim PTX: 9000000 instructions simulated : ctaid=(10,0,0) tid=(149,0,0)
GPGPU-Sim PTX: 9100000 instructions simulated : ctaid=(25,0,0) tid=(245,0,0)
GPGPU-Sim uArch: cycles simulated: 24500  inst.: 8732343 (ipc=356.4) sim_rate=185794 (inst/sec) elapsed = 0:0:00:47 / Sun Mar  6 05:32:19 2016
GPGPU-Sim PTX: 9200000 instructions simulated : ctaid=(23,0,0) tid=(213,0,0)
GPGPU-Sim PTX: 9300000 instructions simulated : ctaid=(50,0,0) tid=(53,0,0)
GPGPU-Sim uArch: cycles simulated: 25000  inst.: 8911543 (ipc=356.5) sim_rate=185657 (inst/sec) elapsed = 0:0:00:48 / Sun Mar  6 05:32:20 2016
GPGPU-Sim PTX: 9400000 instructions simulated : ctaid=(55,0,0) tid=(53,0,0)
GPGPU-Sim PTX: 9500000 instructions simulated : ctaid=(6,0,0) tid=(229,0,0)
GPGPU-Sim uArch: cycles simulated: 25500  inst.: 9079735 (ipc=356.1) sim_rate=185300 (inst/sec) elapsed = 0:0:00:49 / Sun Mar  6 05:32:21 2016
GPGPU-Sim PTX: 9600000 instructions simulated : ctaid=(33,0,0) tid=(5,0,0)
GPGPU-Sim PTX: 9700000 instructions simulated : ctaid=(26,0,0) tid=(225,0,0)
GPGPU-Sim PTX: 9800000 instructions simulated : ctaid=(56,0,0) tid=(95,0,0)
GPGPU-Sim PTX: 9900000 instructions simulated : ctaid=(6,0,0) tid=(210,0,0)
GPGPU-Sim PTX: 10000000 instructions simulated : ctaid=(45,0,0) tid=(1,0,0)
GPGPU-Sim uArch: cycles simulated: 26500  inst.: 9604460 (ipc=362.4) sim_rate=188322 (inst/sec) elapsed = 0:0:00:51 / Sun Mar  6 05:32:23 2016
GPGPU-Sim PTX: 10100000 instructions simulated : ctaid=(53,0,0) tid=(201,0,0)
GPGPU-Sim PTX: 10200000 instructions simulated : ctaid=(63,0,0) tid=(122,0,0)
GPGPU-Sim PTX: 10300000 instructions simulated : ctaid=(40,0,0) tid=(155,0,0)
GPGPU-Sim uArch: cycles simulated: 27000  inst.: 9919131 (ipc=367.4) sim_rate=190752 (inst/sec) elapsed = 0:0:00:52 / Sun Mar  6 05:32:24 2016
GPGPU-Sim PTX: 10400000 instructions simulated : ctaid=(35,0,0) tid=(228,0,0)
GPGPU-Sim PTX: 10500000 instructions simulated : ctaid=(4,0,0) tid=(11,0,0)
GPGPU-Sim PTX: 10600000 instructions simulated : ctaid=(66,0,0) tid=(62,0,0)
GPGPU-Sim PTX: 10700000 instructions simulated : ctaid=(44,0,0) tid=(34,0,0)
GPGPU-Sim uArch: cycles simulated: 27500  inst.: 10237612 (ipc=372.3) sim_rate=193162 (inst/sec) elapsed = 0:0:00:53 / Sun Mar  6 05:32:25 2016
GPGPU-Sim PTX: 10800000 instructions simulated : ctaid=(7,0,0) tid=(85,0,0)
GPGPU-Sim PTX: 10900000 instructions simulated : ctaid=(11,0,0) tid=(114,0,0)
GPGPU-Sim uArch: Shader 11 finished CTA #0 (27807,0), 5 CTAs running
GPGPU-Sim uArch: core: 11, cta: 0 initialized @(27808,0)
GPGPU-Sim PTX: 11000000 instructions simulated : ctaid=(0,0,0) tid=(106,0,0)
GPGPU-Sim uArch: Shader 0 finished CTA #0 (27881,0), 5 CTAs running
GPGPU-Sim uArch: core:  0, cta: 0 initialized @(27882,0)
GPGPU-Sim uArch: Shader 10 finished CTA #0 (27901,0), 5 CTAs running
GPGPU-Sim uArch: core: 10, cta: 0 initialized @(27902,0)
GPGPU-Sim PTX: 11100000 instructions simulated : ctaid=(45,0,0) tid=(61,0,0)
GPGPU-Sim uArch: cycles simulated: 28000  inst.: 10597890 (ipc=378.5) sim_rate=196257 (inst/sec) elapsed = 0:0:00:54 / Sun Mar  6 05:32:26 2016
GPGPU-Sim uArch: Shader 13 finished CTA #0 (28040,0), 5 CTAs running
GPGPU-Sim uArch: core: 13, cta: 0 initialized @(28041,0)
GPGPU-Sim uArch: Shader 4 finished CTA #0 (28049,0), 5 CTAs running
GPGPU-Sim uArch: core:  4, cta: 0 initialized @(28050,0)
GPGPU-Sim uArch: Shader 7 finished CTA #0 (28062,0), 5 CTAs running
GPGPU-Sim uArch: core:  7, cta: 0 initialized @(28063,0)
GPGPU-Sim PTX: 11200000 instructions simulated : ctaid=(74,0,0) tid=(96,0,0)
GPGPU-Sim PTX: 11300000 instructions simulated : ctaid=(11,0,0) tid=(99,0,0)
GPGPU-Sim uArch: Shader 5 finished CTA #0 (28235,0), 5 CTAs running
GPGPU-Sim uArch: core:  5, cta: 0 initialized @(28236,0)
GPGPU-Sim PTX: 11400000 instructions simulated : ctaid=(66,0,0) tid=(160,0,0)
GPGPU-Sim PTX: 11500000 instructions simulated : ctaid=(34,0,0) tid=(231,0,0)
GPGPU-Sim uArch: cycles simulated: 28500  inst.: 10983617 (ipc=385.4) sim_rate=199702 (inst/sec) elapsed = 0:0:00:55 / Sun Mar  6 05:32:27 2016
GPGPU-Sim PTX: 11600000 instructions simulated : ctaid=(11,0,0) tid=(167,0,0)
GPGPU-Sim PTX: 11700000 instructions simulated : ctaid=(66,0,0) tid=(230,0,0)
GPGPU-Sim uArch: Shader 6 finished CTA #0 (28774,0), 5 CTAs running
GPGPU-Sim uArch: core:  6, cta: 0 initialized @(28775,0)
GPGPU-Sim PTX: 11800000 instructions simulated : ctaid=(36,0,0) tid=(226,0,0)
GPGPU-Sim uArch: cycles simulated: 29000  inst.: 11310416 (ipc=390.0) sim_rate=201971 (inst/sec) elapsed = 0:0:00:56 / Sun Mar  6 05:32:28 2016
GPGPU-Sim PTX: 11900000 instructions simulated : ctaid=(11,0,0) tid=(104,0,0)
GPGPU-Sim PTX: 12000000 instructions simulated : ctaid=(29,0,0) tid=(31,0,0)
GPGPU-Sim uArch: Shader 3 finished CTA #0 (29209,0), 5 CTAs running
GPGPU-Sim uArch: core:  3, cta: 0 initialized @(29210,0)
GPGPU-Sim uArch: Shader 2 finished CTA #0 (29332,0), 5 CTAs running
GPGPU-Sim uArch: core:  2, cta: 0 initialized @(29333,0)
GPGPU-Sim PTX: 12100000 instructions simulated : ctaid=(89,0,0) tid=(188,0,0)
GPGPU-Sim uArch: Shader 1 finished CTA #0 (29453,0), 5 CTAs running
GPGPU-Sim uArch: core:  1, cta: 0 initialized @(29454,0)
GPGPU-Sim uArch: Shader 12 finished CTA #0 (29457,0), 5 CTAs running
GPGPU-Sim uArch: core: 12, cta: 0 initialized @(29458,0)
GPGPU-Sim uArch: Shader 8 finished CTA #0 (29498,0), 5 CTAs running
GPGPU-Sim uArch: core:  8, cta: 0 initialized @(29499,0)
GPGPU-Sim uArch: cycles simulated: 29500  inst.: 11633434 (ipc=394.4) sim_rate=200576 (inst/sec) elapsed = 0:0:00:58 / Sun Mar  6 05:32:30 2016
GPGPU-Sim PTX: 12200000 instructions simulated : ctaid=(38,0,0) tid=(75,0,0)
GPGPU-Sim uArch: Shader 1 finished CTA #1 (29549,0), 5 CTAs running
GPGPU-Sim uArch: core:  1, cta: 1 initialized @(29550,0)
GPGPU-Sim uArch: Shader 6 finished CTA #1 (29634,0), 5 CTAs running
GPGPU-Sim uArch: core:  6, cta: 1 initialized @(29635,0)
GPGPU-Sim PTX: 12300000 instructions simulated : ctaid=(102,0,0) tid=(2,0,0)
GPGPU-Sim uArch: Shader 2 finished CTA #1 (29782,0), 5 CTAs running
GPGPU-Sim uArch: core:  2, cta: 1 initialized @(29783,0)
GPGPU-Sim uArch: Shader 9 finished CTA #0 (29803,0), 5 CTAs running
GPGPU-Sim uArch: core:  9, cta: 0 initialized @(29804,0)
GPGPU-Sim PTX: 12400000 instructions simulated : ctaid=(60,0,0) tid=(34,0,0)
GPGPU-Sim uArch: Shader 7 finished CTA #1 (29821,0), 5 CTAs running
GPGPU-Sim uArch: core:  7, cta: 1 initialized @(29822,0)
GPGPU-Sim uArch: Shader 14 finished CTA #0 (29863,0), 5 CTAs running
GPGPU-Sim uArch: core: 14, cta: 0 initialized @(29864,0)
GPGPU-Sim uArch: Shader 9 finished CTA #1 (29905,0), 5 CTAs running
GPGPU-Sim uArch: core:  9, cta: 1 initialized @(29906,0)
GPGPU-Sim uArch: Shader 4 finished CTA #1 (29936,0), 5 CTAs running
GPGPU-Sim uArch: core:  4, cta: 1 initialized @(29937,0)
GPGPU-Sim PTX: 12500000 instructions simulated : ctaid=(31,0,0) tid=(135,0,0)
GPGPU-Sim uArch: Shader 11 finished CTA #1 (29978,0), 5 CTAs running
GPGPU-Sim uArch: core: 11, cta: 1 initialized @(29979,0)
GPGPU-Sim uArch: cycles simulated: 30000  inst.: 11945868 (ipc=398.2) sim_rate=202472 (inst/sec) elapsed = 0:0:00:59 / Sun Mar  6 05:32:31 2016
GPGPU-Sim PTX: 12600000 instructions simulated : ctaid=(77,0,0) tid=(124,0,0)
GPGPU-Sim uArch: Shader 8 finished CTA #1 (30168,0), 5 CTAs running
GPGPU-Sim uArch: core:  8, cta: 1 initialized @(30169,0)
GPGPU-Sim uArch: Shader 3 finished CTA #1 (30177,0), 5 CTAs running
GPGPU-Sim uArch: core:  3, cta: 1 initialized @(30178,0)
GPGPU-Sim PTX: 12700000 instructions simulated : ctaid=(108,0,0) tid=(197,0,0)
GPGPU-Sim uArch: Shader 0 finished CTA #1 (30326,0), 5 CTAs running
GPGPU-Sim uArch: core:  0, cta: 1 initialized @(30327,0)
GPGPU-Sim uArch: Shader 10 finished CTA #1 (30395,0), 5 CTAs running
GPGPU-Sim uArch: core: 10, cta: 1 initialized @(30396,0)
GPGPU-Sim PTX: 12800000 instructions simulated : ctaid=(113,0,0) tid=(63,0,0)
GPGPU-Sim uArch: Shader 5 finished CTA #1 (30460,0), 5 CTAs running
GPGPU-Sim uArch: core:  5, cta: 1 initialized @(30461,0)
GPGPU-Sim uArch: cycles simulated: 30500  inst.: 12243811 (ipc=401.4) sim_rate=204063 (inst/sec) elapsed = 0:0:01:00 / Sun Mar  6 05:32:32 2016
GPGPU-Sim PTX: 12900000 instructions simulated : ctaid=(113,0,0) tid=(149,0,0)
GPGPU-Sim uArch: Shader 13 finished CTA #1 (30656,0), 5 CTAs running
GPGPU-Sim uArch: core: 13, cta: 1 initialized @(30657,0)
GPGPU-Sim uArch: Shader 14 finished CTA #1 (30658,0), 5 CTAs running
GPGPU-Sim uArch: core: 14, cta: 1 initialized @(30659,0)
GPGPU-Sim PTX: 13000000 instructions simulated : ctaid=(38,0,0) tid=(157,0,0)
GPGPU-Sim uArch: Shader 12 finished CTA #1 (30799,0), 5 CTAs running
GPGPU-Sim uArch: core: 12, cta: 1 initialized @(30800,0)
GPGPU-Sim PTX: 13100000 instructions simulated : ctaid=(41,0,0) tid=(121,0,0)
GPGPU-Sim uArch: cycles simulated: 31000  inst.: 12518506 (ipc=403.8) sim_rate=205221 (inst/sec) elapsed = 0:0:01:01 / Sun Mar  6 05:32:33 2016
GPGPU-Sim PTX: 13200000 instructions simulated : ctaid=(30,0,0) tid=(185,0,0)
GPGPU-Sim PTX: 13300000 instructions simulated : ctaid=(33,0,0) tid=(223,0,0)
GPGPU-Sim PTX: 13400000 instructions simulated : ctaid=(117,0,0) tid=(109,0,0)
GPGPU-Sim uArch: cycles simulated: 31500  inst.: 12855517 (ipc=408.1) sim_rate=207347 (inst/sec) elapsed = 0:0:01:02 / Sun Mar  6 05:32:34 2016
GPGPU-Sim PTX: 13500000 instructions simulated : ctaid=(44,0,0) tid=(105,0,0)
GPGPU-Sim PTX: 13600000 instructions simulated : ctaid=(35,0,0) tid=(42,0,0)
GPGPU-Sim PTX: 13700000 instructions simulated : ctaid=(85,0,0) tid=(239,0,0)
GPGPU-Sim PTX: 13800000 instructions simulated : ctaid=(47,0,0) tid=(188,0,0)
GPGPU-Sim uArch: cycles simulated: 32000  inst.: 13172623 (ipc=411.6) sim_rate=209089 (inst/sec) elapsed = 0:0:01:03 / Sun Mar  6 05:32:35 2016
GPGPU-Sim PTX: 13900000 instructions simulated : ctaid=(62,0,0) tid=(251,0,0)
GPGPU-Sim PTX: 14000000 instructions simulated : ctaid=(101,0,0) tid=(103,0,0)
GPGPU-Sim PTX: 14100000 instructions simulated : ctaid=(108,0,0) tid=(148,0,0)
GPGPU-Sim uArch: cycles simulated: 32500  inst.: 13453863 (ipc=414.0) sim_rate=206982 (inst/sec) elapsed = 0:0:01:05 / Sun Mar  6 05:32:37 2016
GPGPU-Sim PTX: 14200000 instructions simulated : ctaid=(87,0,0) tid=(217,0,0)
GPGPU-Sim PTX: 14300000 instructions simulated : ctaid=(30,0,0) tid=(248,0,0)
GPGPU-Sim uArch: cycles simulated: 33000  inst.: 13715177 (ipc=415.6) sim_rate=207805 (inst/sec) elapsed = 0:0:01:06 / Sun Mar  6 05:32:38 2016
GPGPU-Sim PTX: 14400000 instructions simulated : ctaid=(68,0,0) tid=(193,0,0)
GPGPU-Sim PTX: 14500000 instructions simulated : ctaid=(88,0,0) tid=(101,0,0)
GPGPU-Sim uArch: Shader 9 finished CTA #2 (33222,0), 5 CTAs running
GPGPU-Sim uArch: core:  9, cta: 2 initialized @(33223,0)
GPGPU-Sim uArch: Shader 10 finished CTA #2 (33251,0), 5 CTAs running
GPGPU-Sim uArch: core: 10, cta: 2 initialized @(33252,0)
GPGPU-Sim uArch: Shader 13 finished CTA #2 (33253,0), 5 CTAs running
GPGPU-Sim uArch: core: 13, cta: 2 initialized @(33254,0)
GPGPU-Sim uArch: Shader 12 finished CTA #2 (33315,0), 5 CTAs running
GPGPU-Sim uArch: core: 12, cta: 2 initialized @(33316,0)
GPGPU-Sim uArch: Shader 4 finished CTA #2 (33351,0), 5 CTAs running
GPGPU-Sim uArch: core:  4, cta: 2 initialized @(33352,0)
GPGPU-Sim PTX: 14600000 instructions simulated : ctaid=(72,0,0) tid=(233,0,0)
GPGPU-Sim uArch: Shader 1 finished CTA #2 (33438,0), 5 CTAs running
GPGPU-Sim uArch: core:  1, cta: 2 initialized @(33439,0)
GPGPU-Sim uArch: cycles simulated: 33500  inst.: 13962317 (ipc=416.8) sim_rate=208392 (inst/sec) elapsed = 0:0:01:07 / Sun Mar  6 05:32:39 2016
GPGPU-Sim uArch: Shader 7 finished CTA #2 (33529,0), 5 CTAs running
GPGPU-Sim uArch: core:  7, cta: 2 initialized @(33530,0)
GPGPU-Sim uArch: Shader 6 finished CTA #2 (33551,0), 5 CTAs running
GPGPU-Sim uArch: core:  6, cta: 2 initialized @(33552,0)
GPGPU-Sim uArch: Shader 0 finished CTA #2 (33587,0), 5 CTAs running
GPGPU-Sim PTX: 14700000 instructions simulated : ctaid=(79,0,0) tid=(87,0,0)
GPGPU-Sim PTX: 14800000 instructions simulated : ctaid=(45,0,0) tid=(55,0,0)
GPGPU-Sim uArch: Shader 2 finished CTA #2 (33803,0), 5 CTAs running
GPGPU-Sim PTX: 14900000 instructions simulated : ctaid=(86,0,0) tid=(45,0,0)
GPGPU-Sim uArch: Shader 14 finished CTA #2 (33993,0), 5 CTAs running
GPGPU-Sim uArch: cycles simulated: 34000  inst.: 14223461 (ipc=418.3) sim_rate=209168 (inst/sec) elapsed = 0:0:01:08 / Sun Mar  6 05:32:40 2016
GPGPU-Sim uArch: Shader 3 finished CTA #2 (34011,0), 5 CTAs running
GPGPU-Sim PTX: 15000000 instructions simulated : ctaid=(118,0,0) tid=(219,0,0)
GPGPU-Sim PTX: 15100000 instructions simulated : ctaid=(60,0,0) tid=(112,0,0)
GPGPU-Sim uArch: cycles simulated: 34500  inst.: 14441927 (ipc=418.6) sim_rate=209303 (inst/sec) elapsed = 0:0:01:09 / Sun Mar  6 05:32:41 2016
GPGPU-Sim PTX: 15200000 instructions simulated : ctaid=(102,0,0) tid=(115,0,0)
GPGPU-Sim uArch: Shader 11 finished CTA #2 (34741,0), 5 CTAs running
GPGPU-Sim PTX: 15300000 instructions simulated : ctaid=(80,0,0) tid=(92,0,0)
GPGPU-Sim uArch: Shader 8 finished CTA #2 (34968,0), 5 CTAs running
GPGPU-Sim uArch: cycles simulated: 35000  inst.: 14660621 (ipc=418.9) sim_rate=209437 (inst/sec) elapsed = 0:0:01:10 / Sun Mar  6 05:32:42 2016
GPGPU-Sim PTX: 15400000 instructions simulated : ctaid=(85,0,0) tid=(238,0,0)
GPGPU-Sim uArch: Shader 5 finished CTA #2 (35257,0), 5 CTAs running
GPGPU-Sim PTX: 15500000 instructions simulated : ctaid=(90,0,0) tid=(203,0,0)
GPGPU-Sim uArch: cycles simulated: 35500  inst.: 14839193 (ipc=418.0) sim_rate=209002 (inst/sec) elapsed = 0:0:01:11 / Sun Mar  6 05:32:43 2016
GPGPU-Sim PTX: 15600000 instructions simulated : ctaid=(76,0,0) tid=(254,0,0)
GPGPU-Sim PTX: 15700000 instructions simulated : ctaid=(110,0,0) tid=(84,0,0)
GPGPU-Sim uArch: cycles simulated: 36000  inst.: 15022440 (ipc=417.3) sim_rate=208645 (inst/sec) elapsed = 0:0:01:12 / Sun Mar  6 05:32:44 2016
GPGPU-Sim PTX: 15800000 instructions simulated : ctaid=(116,0,0) tid=(133,0,0)
GPGPU-Sim PTX: 15900000 instructions simulated : ctaid=(75,0,0) tid=(9,0,0)
GPGPU-Sim uArch: cycles simulated: 36500  inst.: 15247685 (ipc=417.7) sim_rate=208872 (inst/sec) elapsed = 0:0:01:13 / Sun Mar  6 05:32:45 2016
GPGPU-Sim PTX: 16000000 instructions simulated : ctaid=(61,0,0) tid=(141,0,0)
GPGPU-Sim PTX: 16100000 instructions simulated : ctaid=(79,0,0) tid=(160,0,0)
GPGPU-Sim PTX: 16200000 instructions simulated : ctaid=(85,0,0) tid=(132,0,0)
GPGPU-Sim uArch: cycles simulated: 37000  inst.: 15503554 (ipc=419.0) sim_rate=209507 (inst/sec) elapsed = 0:0:01:14 / Sun Mar  6 05:32:46 2016
GPGPU-Sim PTX: 16300000 instructions simulated : ctaid=(45,0,0) tid=(89,0,0)
GPGPU-Sim PTX: 16400000 instructions simulated : ctaid=(52,0,0) tid=(112,0,0)
GPGPU-Sim PTX: 16500000 instructions simulated : ctaid=(59,0,0) tid=(3,0,0)
GPGPU-Sim uArch: cycles simulated: 37500  inst.: 15793874 (ipc=421.2) sim_rate=210584 (inst/sec) elapsed = 0:0:01:15 / Sun Mar  6 05:32:47 2016
GPGPU-Sim PTX: 16600000 instructions simulated : ctaid=(78,0,0) tid=(202,0,0)
GPGPU-Sim PTX: 16700000 instructions simulated : ctaid=(69,0,0) tid=(45,0,0)
GPGPU-Sim PTX: 16800000 instructions simulated : ctaid=(67,0,0) tid=(72,0,0)
GPGPU-Sim uArch: cycles simulated: 38000  inst.: 16089688 (ipc=423.4) sim_rate=211706 (inst/sec) elapsed = 0:0:01:16 / Sun Mar  6 05:32:48 2016
GPGPU-Sim PTX: 16900000 instructions simulated : ctaid=(124,0,0) tid=(45,0,0)
GPGPU-Sim PTX: 17000000 instructions simulated : ctaid=(48,0,0) tid=(14,0,0)
GPGPU-Sim PTX: 17100000 instructions simulated : ctaid=(98,0,0) tid=(177,0,0)
GPGPU-Sim uArch: cycles simulated: 38500  inst.: 16322863 (ipc=424.0) sim_rate=211985 (inst/sec) elapsed = 0:0:01:17 / Sun Mar  6 05:32:49 2016
GPGPU-Sim uArch: Shader 11 finished CTA #3 (38673,0), 4 CTAs running
GPGPU-Sim PTX: 17200000 instructions simulated : ctaid=(70,0,0) tid=(150,0,0)
GPGPU-Sim uArch: Shader 10 finished CTA #3 (38834,0), 5 CTAs running
GPGPU-Sim PTX: 17300000 instructions simulated : ctaid=(53,0,0) tid=(83,0,0)
GPGPU-Sim uArch: cycles simulated: 39000  inst.: 16526394 (ipc=423.8) sim_rate=211876 (inst/sec) elapsed = 0:0:01:18 / Sun Mar  6 05:32:50 2016
GPGPU-Sim uArch: Shader 8 finished CTA #3 (39022,0), 4 CTAs running
GPGPU-Sim PTX: 17400000 instructions simulated : ctaid=(49,0,0) tid=(241,0,0)
GPGPU-Sim uArch: Shader 6 finished CTA #3 (39208,0), 5 CTAs running
GPGPU-Sim uArch: Shader 3 finished CTA #3 (39323,0), 4 CTAs running
GPGPU-Sim PTX: 17500000 instructions simulated : ctaid=(60,0,0) tid=(55,0,0)
GPGPU-Sim uArch: Shader 0 finished CTA #3 (39488,0), 4 CTAs running
GPGPU-Sim uArch: cycles simulated: 39500  inst.: 16713749 (ipc=423.1) sim_rate=211566 (inst/sec) elapsed = 0:0:01:19 / Sun Mar  6 05:32:51 2016
GPGPU-Sim uArch: Shader 12 finished CTA #3 (39524,0), 5 CTAs running
GPGPU-Sim uArch: Shader 1 finished CTA #3 (39620,0), 5 CTAs running
GPGPU-Sim PTX: 17600000 instructions simulated : ctaid=(80,0,0) tid=(214,0,0)
GPGPU-Sim uArch: Shader 5 finished CTA #3 (39966,0), 4 CTAs running
GPGPU-Sim uArch: Shader 4 finished CTA #3 (39979,0), 5 CTAs running
GPGPU-Sim PTX: 17700000 instructions simulated : ctaid=(102,0,0) tid=(55,0,0)
GPGPU-Sim uArch: cycles simulated: 40000  inst.: 16884456 (ipc=422.1) sim_rate=211055 (inst/sec) elapsed = 0:0:01:20 / Sun Mar  6 05:32:52 2016
GPGPU-Sim uArch: Shader 9 finished CTA #3 (40014,0), 5 CTAs running
GPGPU-Sim uArch: Shader 7 finished CTA #3 (40025,0), 5 CTAs running
GPGPU-Sim uArch: Shader 13 finished CTA #3 (40037,0), 5 CTAs running
GPGPU-Sim PTX: 17800000 instructions simulated : ctaid=(79,0,0) tid=(97,0,0)
GPGPU-Sim uArch: Shader 2 finished CTA #3 (40518,0), 4 CTAs running
GPGPU-Sim PTX: 17900000 instructions simulated : ctaid=(85,0,0) tid=(51,0,0)
GPGPU-Sim uArch: cycles simulated: 41000  inst.: 17164962 (ipc=418.7) sim_rate=211913 (inst/sec) elapsed = 0:0:01:21 / Sun Mar  6 05:32:53 2016
GPGPU-Sim PTX: 18000000 instructions simulated : ctaid=(114,0,0) tid=(115,0,0)
GPGPU-Sim uArch: Shader 14 finished CTA #3 (41039,0), 4 CTAs running
GPGPU-Sim PTX: 18100000 instructions simulated : ctaid=(126,0,0) tid=(83,0,0)
GPGPU-Sim uArch: cycles simulated: 41500  inst.: 17319586 (ipc=417.3) sim_rate=211214 (inst/sec) elapsed = 0:0:01:22 / Sun Mar  6 05:32:54 2016
GPGPU-Sim PTX: 18200000 instructions simulated : ctaid=(107,0,0) tid=(75,0,0)
GPGPU-Sim PTX: 18300000 instructions simulated : ctaid=(120,0,0) tid=(135,0,0)
GPGPU-Sim uArch: cycles simulated: 42000  inst.: 17478207 (ipc=416.1) sim_rate=210580 (inst/sec) elapsed = 0:0:01:23 / Sun Mar  6 05:32:55 2016
GPGPU-Sim PTX: 18400000 instructions simulated : ctaid=(71,0,0) tid=(225,0,0)
GPGPU-Sim PTX: 18500000 instructions simulated : ctaid=(66,0,0) tid=(153,0,0)
GPGPU-Sim uArch: cycles simulated: 42500  inst.: 17662545 (ipc=415.6) sim_rate=210268 (inst/sec) elapsed = 0:0:01:24 / Sun Mar  6 05:32:56 2016
GPGPU-Sim uArch: Shader 0 finished CTA #4 (42591,0), 3 CTAs running
GPGPU-Sim PTX: 18600000 instructions simulated : ctaid=(62,0,0) tid=(111,0,0)
GPGPU-Sim uArch: Shader 5 finished CTA #4 (42880,0), 3 CTAs running
GPGPU-Sim PTX: 18700000 instructions simulated : ctaid=(63,0,0) tid=(127,0,0)
GPGPU-Sim uArch: cycles simulated: 43000  inst.: 17894976 (ipc=416.2) sim_rate=210529 (inst/sec) elapsed = 0:0:01:25 / Sun Mar  6 05:32:57 2016
GPGPU-Sim PTX: 18800000 instructions simulated : ctaid=(124,0,0) tid=(111,0,0)
GPGPU-Sim PTX: 18900000 instructions simulated : ctaid=(65,0,0) tid=(231,0,0)
GPGPU-Sim PTX: 19000000 instructions simulated : ctaid=(70,0,0) tid=(244,0,0)
GPGPU-Sim uArch: cycles simulated: 43500  inst.: 18145188 (ipc=417.1) sim_rate=210990 (inst/sec) elapsed = 0:0:01:26 / Sun Mar  6 05:32:58 2016
GPGPU-Sim PTX: 19100000 instructions simulated : ctaid=(70,0,0) tid=(26,0,0)
GPGPU-Sim uArch: Shader 7 finished CTA #4 (43828,0), 4 CTAs running
GPGPU-Sim PTX: 19200000 instructions simulated : ctaid=(90,0,0) tid=(4,0,0)
GPGPU-Sim PTX: 19300000 instructions simulated : ctaid=(124,0,0) tid=(63,0,0)
GPGPU-Sim uArch: Shader 12 finished CTA #4 (44116,0), 4 CTAs running
GPGPU-Sim uArch: Shader 8 finished CTA #4 (44118,0), 3 CTAs running
GPGPU-Sim PTX: 19400000 instructions simulated : ctaid=(84,0,0) tid=(216,0,0)
GPGPU-Sim uArch: Shader 4 finished CTA #4 (44304,0), 4 CTAs running
GPGPU-Sim PTX: 19500000 instructions simulated : ctaid=(72,0,0) tid=(114,0,0)
GPGPU-Sim uArch: Shader 3 finished CTA #4 (44462,0), 3 CTAs running
GPGPU-Sim PTX: 19600000 instructions simulated : ctaid=(108,0,0) tid=(20,0,0)
GPGPU-Sim uArch: cycles simulated: 44500  inst.: 18698821 (ipc=420.2) sim_rate=214928 (inst/sec) elapsed = 0:0:01:27 / Sun Mar  6 05:32:59 2016
GPGPU-Sim uArch: Shader 2 finished CTA #4 (44508,0), 3 CTAs running
GPGPU-Sim uArch: Shader 10 finished CTA #4 (44554,0), 4 CTAs running
GPGPU-Sim PTX: 19700000 instructions simulated : ctaid=(91,0,0) tid=(79,0,0)
GPGPU-Sim uArch: Shader 11 finished CTA #4 (44674,0), 3 CTAs running
GPGPU-Sim uArch: Shader 6 finished CTA #4 (44713,0), 4 CTAs running
GPGPU-Sim PTX: 19800000 instructions simulated : ctaid=(73,0,0) tid=(85,0,0)
GPGPU-Sim uArch: cycles simulated: 45000  inst.: 18976105 (ipc=421.7) sim_rate=215637 (inst/sec) elapsed = 0:0:01:28 / Sun Mar  6 05:33:00 2016
GPGPU-Sim PTX: 19900000 instructions simulated : ctaid=(107,0,0) tid=(251,0,0)
GPGPU-Sim uArch: Shader 1 finished CTA #4 (45078,0), 4 CTAs running
GPGPU-Sim uArch: Shader 13 finished CTA #4 (45146,0), 4 CTAs running
GPGPU-Sim PTX: 20000000 instructions simulated : ctaid=(98,0,0) tid=(102,0,0)
GPGPU-Sim PTX: 20100000 instructions simulated : ctaid=(111,0,0) tid=(186,0,0)
GPGPU-Sim PTX: 20200000 instructions simulated : ctaid=(101,0,0) tid=(21,0,0)
GPGPU-Sim uArch: cycles simulated: 45500  inst.: 19269090 (ipc=423.5) sim_rate=216506 (inst/sec) elapsed = 0:0:01:29 / Sun Mar  6 05:33:01 2016
GPGPU-Sim uArch: Shader 14 finished CTA #4 (45618,0), 3 CTAs running
GPGPU-Sim PTX: 20300000 instructions simulated : ctaid=(101,0,0) tid=(3,0,0)
GPGPU-Sim PTX: 20400000 instructions simulated : ctaid=(76,0,0) tid=(63,0,0)
GPGPU-Sim uArch: cycles simulated: 46000  inst.: 19528590 (ipc=424.5) sim_rate=216984 (inst/sec) elapsed = 0:0:01:30 / Sun Mar  6 05:33:02 2016
GPGPU-Sim PTX: 20500000 instructions simulated : ctaid=(79,0,0) tid=(50,0,0)
GPGPU-Sim PTX: 20600000 instructions simulated : ctaid=(77,0,0) tid=(61,0,0)
GPGPU-Sim uArch: Shader 11 finished CTA #5 (46245,0), 2 CTAs running
GPGPU-Sim uArch: Shader 9 finished CTA #4 (46373,0), 4 CTAs running
GPGPU-Sim PTX: 20700000 instructions simulated : ctaid=(82,0,0) tid=(55,0,0)
GPGPU-Sim uArch: cycles simulated: 46500  inst.: 19811581 (ipc=426.1) sim_rate=217709 (inst/sec) elapsed = 0:0:01:31 / Sun Mar  6 05:33:03 2016
GPGPU-Sim PTX: 20800000 instructions simulated : ctaid=(92,0,0) tid=(199,0,0)
GPGPU-Sim PTX: 20900000 instructions simulated : ctaid=(78,0,0) tid=(19,0,0)
GPGPU-Sim PTX: 21000000 instructions simulated : ctaid=(75,0,0) tid=(99,0,0)
GPGPU-Sim uArch: Shader 0 finished CTA #5 (46871,0), 2 CTAs running
GPGPU-Sim uArch: cycles simulated: 47000  inst.: 20099993 (ipc=427.7) sim_rate=218478 (inst/sec) elapsed = 0:0:01:32 / Sun Mar  6 05:33:04 2016
GPGPU-Sim PTX: 21100000 instructions simulated : ctaid=(102,0,0) tid=(185,0,0)
GPGPU-Sim PTX: 21200000 instructions simulated : ctaid=(114,0,0) tid=(38,0,0)
GPGPU-Sim uArch: Shader 5 finished CTA #5 (47312,0), 2 CTAs running
GPGPU-Sim uArch: Shader 14 finished CTA #5 (47371,0), 2 CTAs running
GPGPU-Sim uArch: Shader 8 finished CTA #5 (47402,0), 2 CTAs running
GPGPU-Sim PTX: 21300000 instructions simulated : ctaid=(114,0,0) tid=(115,0,0)
GPGPU-Sim uArch: cycles simulated: 47500  inst.: 20348111 (ipc=428.4) sim_rate=218796 (inst/sec) elapsed = 0:0:01:33 / Sun Mar  6 05:33:05 2016
GPGPU-Sim uArch: Shader 13 finished CTA #5 (47590,0), 3 CTAs running
GPGPU-Sim PTX: 21400000 instructions simulated : ctaid=(113,0,0) tid=(236,0,0)
GPGPU-Sim uArch: Shader 4 finished CTA #5 (47776,0), 3 CTAs running
GPGPU-Sim PTX: 21500000 instructions simulated : ctaid=(104,0,0) tid=(165,0,0)
GPGPU-Sim uArch: Shader 2 finished CTA #5 (47870,0), 2 CTAs running
GPGPU-Sim uArch: cycles simulated: 48000  inst.: 20580768 (ipc=428.8) sim_rate=218944 (inst/sec) elapsed = 0:0:01:34 / Sun Mar  6 05:33:06 2016
GPGPU-Sim uArch: Shader 6 finished CTA #5 (48002,0), 3 CTAs running
GPGPU-Sim PTX: 21600000 instructions simulated : ctaid=(101,0,0) tid=(108,0,0)
GPGPU-Sim uArch: Shader 10 finished CTA #5 (48061,0), 3 CTAs running
GPGPU-Sim uArch: Shader 12 finished CTA #5 (48064,0), 3 CTAs running
GPGPU-Sim uArch: Shader 3 finished CTA #5 (48190,0), 2 CTAs running
GPGPU-Sim PTX: 21700000 instructions simulated : ctaid=(114,0,0) tid=(149,0,0)
GPGPU-Sim uArch: Shader 7 finished CTA #5 (48312,0), 3 CTAs running
GPGPU-Sim PTX: 21800000 instructions simulated : ctaid=(118,0,0) tid=(119,0,0)
GPGPU-Sim uArch: Shader 1 finished CTA #5 (48403,0), 3 CTAs running
GPGPU-Sim PTX: 21900000 instructions simulated : ctaid=(104,0,0) tid=(95,0,0)
GPGPU-Sim uArch: Shader 9 finished CTA #5 (48654,0), 3 CTAs running
GPGPU-Sim PTX: 22000000 instructions simulated : ctaid=(98,0,0) tid=(17,0,0)
GPGPU-Sim uArch: cycles simulated: 49000  inst.: 21036954 (ipc=429.3) sim_rate=221441 (inst/sec) elapsed = 0:0:01:35 / Sun Mar  6 05:33:07 2016
GPGPU-Sim PTX: 22100000 instructions simulated : ctaid=(99,0,0) tid=(247,0,0)
GPGPU-Sim PTX: 22200000 instructions simulated : ctaid=(117,0,0) tid=(70,0,0)
GPGPU-Sim uArch: cycles simulated: 49500  inst.: 21217766 (ipc=428.6) sim_rate=221018 (inst/sec) elapsed = 0:0:01:36 / Sun Mar  6 05:33:08 2016
GPGPU-Sim PTX: 22300000 instructions simulated : ctaid=(103,0,0) tid=(250,0,0)
GPGPU-Sim PTX: 22400000 instructions simulated : ctaid=(110,0,0) tid=(11,0,0)
GPGPU-Sim uArch: cycles simulated: 50000  inst.: 21440779 (ipc=428.8) sim_rate=221038 (inst/sec) elapsed = 0:0:01:37 / Sun Mar  6 05:33:09 2016
GPGPU-Sim PTX: 22500000 instructions simulated : ctaid=(121,0,0) tid=(217,0,0)
GPGPU-Sim PTX: 22600000 instructions simulated : ctaid=(102,0,0) tid=(213,0,0)
GPGPU-Sim PTX: 22700000 instructions simulated : ctaid=(94,0,0) tid=(131,0,0)
GPGPU-Sim PTX: 22800000 instructions simulated : ctaid=(107,0,0) tid=(11,0,0)
GPGPU-Sim uArch: cycles simulated: 51000  inst.: 21808878 (ipc=427.6) sim_rate=222539 (inst/sec) elapsed = 0:0:01:38 / Sun Mar  6 05:33:10 2016
GPGPU-Sim PTX: 22900000 instructions simulated : ctaid=(108,0,0) tid=(176,0,0)
GPGPU-Sim PTX: 23000000 instructions simulated : ctaid=(118,0,0) tid=(10,0,0)
GPGPU-Sim uArch: cycles simulated: 51500  inst.: 22003545 (ipc=427.3) sim_rate=222258 (inst/sec) elapsed = 0:0:01:39 / Sun Mar  6 05:33:11 2016
GPGPU-Sim PTX: 23100000 instructions simulated : ctaid=(109,0,0) tid=(206,0,0)
GPGPU-Sim PTX: 23200000 instructions simulated : ctaid=(96,0,0) tid=(240,0,0)
GPGPU-Sim PTX: 23300000 instructions simulated : ctaid=(111,0,0) tid=(143,0,0)
GPGPU-Sim uArch: cycles simulated: 52000  inst.: 22232360 (ipc=427.5) sim_rate=222323 (inst/sec) elapsed = 0:0:01:40 / Sun Mar  6 05:33:12 2016
GPGPU-Sim PTX: 23400000 instructions simulated : ctaid=(93,0,0) tid=(241,0,0)
GPGPU-Sim PTX: 23500000 instructions simulated : ctaid=(125,0,0) tid=(35,0,0)
GPGPU-Sim PTX: 23600000 instructions simulated : ctaid=(94,0,0) tid=(157,0,0)
GPGPU-Sim PTX: 23700000 instructions simulated : ctaid=(110,0,0) tid=(46,0,0)
GPGPU-Sim uArch: cycles simulated: 53000  inst.: 22634330 (ipc=427.1) sim_rate=224102 (inst/sec) elapsed = 0:0:01:41 / Sun Mar  6 05:33:13 2016
GPGPU-Sim uArch: Shader 0 finished CTA #0 (53134,0), 1 CTAs running
GPGPU-Sim PTX: 23800000 instructions simulated : ctaid=(118,0,0) tid=(243,0,0)
GPGPU-Sim uArch: Shader 11 finished CTA #0 (53221,0), 1 CTAs running
GPGPU-Sim uArch: Shader 3 finished CTA #0 (53274,0), 1 CTAs running
GPGPU-Sim PTX: 23900000 instructions simulated : ctaid=(100,0,0) tid=(253,0,0)
GPGPU-Sim uArch: Shader 5 finished CTA #0 (53452,0), 1 CTAs running
GPGPU-Sim uArch: cycles simulated: 53500  inst.: 22855012 (ipc=427.2) sim_rate=224068 (inst/sec) elapsed = 0:0:01:42 / Sun Mar  6 05:33:14 2016
GPGPU-Sim uArch: Shader 8 finished CTA #0 (53509,0), 1 CTAs running
GPGPU-Sim uArch: Shader 2 finished CTA #0 (53578,0), 1 CTAs running
GPGPU-Sim PTX: 24000000 instructions simulated : ctaid=(117,0,0) tid=(199,0,0)
GPGPU-Sim PTX: 24100000 instructions simulated : ctaid=(97,0,0) tid=(65,0,0)
GPGPU-Sim uArch: Shader 13 finished CTA #0 (53914,0), 2 CTAs running
GPGPU-Sim uArch: cycles simulated: 54000  inst.: 23048927 (ipc=426.8) sim_rate=223775 (inst/sec) elapsed = 0:0:01:43 / Sun Mar  6 05:33:15 2016
GPGPU-Sim PTX: 24200000 instructions simulated : ctaid=(113,0,0) tid=(203,0,0)
GPGPU-Sim uArch: Shader 7 finished CTA #0 (54301,0), 2 CTAs running
GPGPU-Sim PTX: 24300000 instructions simulated : ctaid=(104,0,0) tid=(65,0,0)
GPGPU-Sim uArch: Shader 14 finished CTA #0 (54375,0), 1 CTAs running
GPGPU-Sim PTX: 24400000 instructions simulated : ctaid=(113,0,0) tid=(197,0,0)
GPGPU-Sim uArch: Shader 4 finished CTA #0 (54753,0), 2 CTAs running
GPGPU-Sim uArch: Shader 9 finished CTA #0 (54845,0), 2 CTAs running
GPGPU-Sim uArch: Shader 1 finished CTA #0 (54872,0), 2 CTAs running
GPGPU-Sim PTX: 24500000 instructions simulated : ctaid=(97,0,0) tid=(244,0,0)
GPGPU-Sim uArch: cycles simulated: 55000  inst.: 23377966 (ipc=425.1) sim_rate=224788 (inst/sec) elapsed = 0:0:01:44 / Sun Mar  6 05:33:16 2016
GPGPU-Sim uArch: Shader 12 finished CTA #0 (55101,0), 2 CTAs running
GPGPU-Sim PTX: 24600000 instructions simulated : ctaid=(105,0,0) tid=(118,0,0)
GPGPU-Sim uArch: Shader 6 finished CTA #0 (55299,0), 2 CTAs running
GPGPU-Sim uArch: Shader 10 finished CTA #0 (55347,0), 2 CTAs running
GPGPU-Sim uArch: Shader 3 finished CTA #1 (55535,0), 0 CTAs running
GPGPU-Sim uArch: Shader 3 empty (release kernel 1 '_Z13scalarProdGPUPfS_S_ii').
GPGPU-Sim PTX: 24700000 instructions simulated : ctaid=(109,0,0) tid=(175,0,0)
GPGPU-Sim uArch: Shader 5 finished CTA #1 (55800,0), 0 CTAs running
GPGPU-Sim uArch: Shader 5 empty (release kernel 1 '_Z13scalarProdGPUPfS_S_ii').
GPGPU-Sim uArch: cycles simulated: 56000  inst.: 23654285 (ipc=422.4) sim_rate=225278 (inst/sec) elapsed = 0:0:01:45 / Sun Mar  6 05:33:17 2016
GPGPU-Sim PTX: 24800000 instructions simulated : ctaid=(115,0,0) tid=(141,0,0)
GPGPU-Sim PTX: 24900000 instructions simulated : ctaid=(126,0,0) tid=(187,0,0)
GPGPU-Sim uArch: Shader 0 finished CTA #1 (56385,0), 0 CTAs running
GPGPU-Sim uArch: Shader 0 empty (release kernel 1 '_Z13scalarProdGPUPfS_S_ii').
GPGPU-Sim PTX: 25000000 instructions simulated : ctaid=(118,0,0) tid=(30,0,0)
GPGPU-Sim uArch: Shader 2 finished CTA #1 (56594,0), 0 CTAs running
GPGPU-Sim uArch: Shader 2 empty (release kernel 1 '_Z13scalarProdGPUPfS_S_ii').
GPGPU-Sim uArch: Shader 11 finished CTA #1 (56654,0), 0 CTAs running
GPGPU-Sim uArch: Shader 11 empty (release kernel 1 '_Z13scalarProdGPUPfS_S_ii').
GPGPU-Sim uArch: Shader 8 finished CTA #1 (56796,0), 0 CTAs running
GPGPU-Sim uArch: Shader 8 empty (release kernel 1 '_Z13scalarProdGPUPfS_S_ii').
GPGPU-Sim PTX: 25100000 instructions simulated : ctaid=(109,0,0) tid=(1,0,0)
GPGPU-Sim uArch: cycles simulated: 57000  inst.: 23974071 (ipc=420.6) sim_rate=226170 (inst/sec) elapsed = 0:0:01:46 / Sun Mar  6 05:33:18 2016
GPGPU-Sim PTX: 25200000 instructions simulated : ctaid=(120,0,0) tid=(171,0,0)
GPGPU-Sim uArch: Shader 6 finished CTA #1 (57413,0), 1 CTAs running
GPGPU-Sim uArch: Shader 7 finished CTA #1 (57559,0), 1 CTAs running
GPGPU-Sim uArch: Shader 10 finished CTA #1 (57585,0), 1 CTAs running
GPGPU-Sim uArch: Shader 14 finished CTA #1 (57666,0), 0 CTAs running
GPGPU-Sim uArch: Shader 14 empty (release kernel 1 '_Z13scalarProdGPUPfS_S_ii').
GPGPU-Sim uArch: Shader 1 finished CTA #1 (57782,0), 1 CTAs running
GPGPU-Sim PTX: 25300000 instructions simulated : ctaid=(126,0,0) tid=(61,0,0)
GPGPU-Sim uArch: Shader 12 finished CTA #1 (58005,0), 1 CTAs running
GPGPU-Sim uArch: Shader 9 finished CTA #1 (58144,0), 1 CTAs running
GPGPU-Sim uArch: Shader 4 finished CTA #1 (58183,0), 1 CTAs running
GPGPU-Sim PTX: 25400000 instructions simulated : ctaid=(127,0,0) tid=(213,0,0)
GPGPU-Sim uArch: cycles simulated: 58500  inst.: 24259720 (ipc=414.7) sim_rate=226726 (inst/sec) elapsed = 0:0:01:47 / Sun Mar  6 05:33:19 2016
GPGPU-Sim uArch: Shader 13 finished CTA #1 (58517,0), 1 CTAs running
GPGPU-Sim PTX: 25500000 instructions simulated : ctaid=(127,0,0) tid=(255,0,0)
GPGPU-Sim uArch: Shader 7 finished CTA #2 (59292,0), 0 CTAs running
GPGPU-Sim uArch: Shader 7 empty (release kernel 1 '_Z13scalarProdGPUPfS_S_ii').
GPGPU-Sim uArch: Shader 10 finished CTA #2 (59348,0), 0 CTAs running
GPGPU-Sim uArch: Shader 10 empty (release kernel 1 '_Z13scalarProdGPUPfS_S_ii').
GPGPU-Sim uArch: Shader 4 finished CTA #2 (59475,0), 0 CTAs running
GPGPU-Sim uArch: Shader 4 empty (release kernel 1 '_Z13scalarProdGPUPfS_S_ii').
GPGPU-Sim uArch: Shader 13 finished CTA #2 (59591,0), 0 CTAs running
GPGPU-Sim uArch: Shader 13 empty (release kernel 1 '_Z13scalarProdGPUPfS_S_ii').
GPGPU-Sim uArch: Shader 12 finished CTA #2 (59712,0), 0 CTAs running
GPGPU-Sim uArch: Shader 12 empty (release kernel 1 '_Z13scalarProdGPUPfS_S_ii').
GPGPU-Sim PTX: 25600000 instructions simulated : ctaid=(120,0,0) tid=(10,0,0)
GPGPU-Sim uArch: Shader 1 finished CTA #2 (60041,0), 0 CTAs running
GPGPU-Sim uArch: Shader 1 empty (release kernel 1 '_Z13scalarProdGPUPfS_S_ii').
GPGPU-Sim uArch: Shader 6 finished CTA #2 (60118,0), 0 CTAs running
GPGPU-Sim uArch: Shader 6 empty (release kernel 1 '_Z13scalarProdGPUPfS_S_ii').
GPGPU-Sim uArch: Shader 9 finished CTA #2 (61014,0), 0 CTAs running
GPGPU-Sim uArch: Shader 9 empty (release kernel 1 '_Z13scalarProdGPUPfS_S_ii').
GPGPU-Sim uArch: GPU detected kernel '_Z13scalarProdGPUPfS_S_ii' finished on shader 9.
GPGPU-Sim: synchronize waiting for inactive GPU simulation
kernel_name = _Z13scalarProdGPUPfS_S_ii 
kernel_launch_uid = 1 
gpu_sim_cycle = 61015
gpu_sim_insn = 24441600
gpu_ipc =     400.5835
gpu_tot_sim_cycle = 61015
gpu_tot_sim_insn = 24441600
gpu_tot_ipc =     400.5835
gpu_tot_issued_cta = 128
gpu_stall_dramfull = 44584
gpu_stall_icnt2sh    = 279198
gpu_total_sim_rate=228426

========= Core cache stats =========
L1I_cache:
	L1I_total_cache_accesses = 463616
	L1I_total_cache_misses = 2104
	L1I_total_cache_miss_rate = 0.0045
	L1I_total_cache_pending_hits = 0
	L1I_total_cache_reservation_fails = 6316
L1D_cache:
	L1D_cache_core[0]: Access = 4112, Miss = 4112, Miss_rate = 1.000, Pending_hits = 0, Reservation_fails = 29097
	L1D_cache_core[1]: Access = 4626, Miss = 4626, Miss_rate = 1.000, Pending_hits = 0, Reservation_fails = 31716
	L1D_cache_core[2]: Access = 4112, Miss = 4112, Miss_rate = 1.000, Pending_hits = 0, Reservation_fails = 29600
	L1D_cache_core[3]: Access = 4112, Miss = 4112, Miss_rate = 1.000, Pending_hits = 0, Reservation_fails = 29030
	L1D_cache_core[4]: Access = 4626, Miss = 4626, Miss_rate = 1.000, Pending_hits = 0, Reservation_fails = 32657
	L1D_cache_core[5]: Access = 4112, Miss = 4112, Miss_rate = 1.000, Pending_hits = 0, Reservation_fails = 29133
	L1D_cache_core[6]: Access = 4626, Miss = 4626, Miss_rate = 1.000, Pending_hits = 0, Reservation_fails = 33123
	L1D_cache_core[7]: Access = 4626, Miss = 4626, Miss_rate = 1.000, Pending_hits = 0, Reservation_fails = 32501
	L1D_cache_core[8]: Access = 4112, Miss = 4112, Miss_rate = 1.000, Pending_hits = 0, Reservation_fails = 29148
	L1D_cache_core[9]: Access = 4626, Miss = 4626, Miss_rate = 1.000, Pending_hits = 0, Reservation_fails = 31941
	L1D_cache_core[10]: Access = 4626, Miss = 4626, Miss_rate = 1.000, Pending_hits = 0, Reservation_fails = 32876
	L1D_cache_core[11]: Access = 4112, Miss = 4112, Miss_rate = 1.000, Pending_hits = 0, Reservation_fails = 31194
	L1D_cache_core[12]: Access = 4626, Miss = 4626, Miss_rate = 1.000, Pending_hits = 0, Reservation_fails = 32567
	L1D_cache_core[13]: Access = 4626, Miss = 4626, Miss_rate = 1.000, Pending_hits = 0, Reservation_fails = 30997
	L1D_cache_core[14]: Access = 4112, Miss = 4112, Miss_rate = 1.000, Pending_hits = 0, Reservation_fails = 29624
	L1D_total_cache_accesses = 65792
	L1D_total_cache_misses = 65792
	L1D_total_cache_miss_rate = 1.0000
	L1D_total_cache_pending_hits = 0
	L1D_total_cache_reservation_fails = 465204
	L1D_cache_data_port_util = 0.000
	L1D_cache_fill_port_util = 0.075
L1C_cache:
	L1C_total_cache_accesses = 19712
	L1C_total_cache_misses = 480
	L1C_total_cache_miss_rate = 0.0244
	L1C_total_cache_pending_hits = 0
	L1C_total_cache_reservation_fails = 3264
L1T_cache:
	L1T_total_cache_accesses = 0
	L1T_total_cache_misses = 0
	L1T_total_cache_pending_hits = 0
	L1T_total_cache_reservation_fails = 0

Total_core_cache_stats:
	Total_core_cache_stats_breakdown[GLOBAL_ACC_R][MISS] = 65536
	Total_core_cache_stats_breakdown[GLOBAL_ACC_R][RESERVATION_FAIL] = 465204
	Total_core_cache_stats_breakdown[CONST_ACC_R][HIT] = 19232
	Total_core_cache_stats_breakdown[CONST_ACC_R][MISS] = 480
	Total_core_cache_stats_breakdown[CONST_ACC_R][RESERVATION_FAIL] = 3264
	Total_core_cache_stats_breakdown[GLOBAL_ACC_W][MISS] = 256
	Total_core_cache_stats_breakdown[INST_ACC_R][HIT] = 461512
	Total_core_cache_stats_breakdown[INST_ACC_R][MISS] = 2104
	Total_core_cache_stats_breakdown[INST_ACC_R][RESERVATION_FAIL] = 6316
Shader 0 warp_id issue ditsribution:
warp_id:
0, 1, 2, 3, 4, 5, 6, 7, 8, 9, 10, 11, 12, 13, 14, 15, 16, 17, 18, 19, 20, 21, 22, 23, 24, 25, 26, 27, 28, 29, 30, 31, 32, 33, 34, 35, 36, 37, 38, 39, 40, 41, 42, 43, 44, 45, 46, 47, 
distro:
2148, 1644, 1564, 1564, 1484, 1484, 1484, 1484, 2148, 1644, 1564, 1564, 1484, 1484, 1484, 1484, 1074, 822, 782, 782, 742, 742, 742, 742, 1074, 822, 782, 782, 742, 742, 742, 742, 1074, 822, 782, 782, 742, 742, 742, 742, 1074, 822, 782, 782, 742, 742, 742, 742, 
gpgpu_n_tot_thrd_icount = 26329088
gpgpu_n_tot_w_icount = 822784
gpgpu_n_stall_shd_mem = 468468
gpgpu_n_mem_read_local = 0
gpgpu_n_mem_write_local = 0
gpgpu_n_mem_read_global = 65536
gpgpu_n_mem_write_global = 256
gpgpu_n_mem_texture = 0
gpgpu_n_mem_const = 15
gpgpu_n_load_insn  = 2097152
gpgpu_n_store_insn = 256
gpgpu_n_shmem_insn = 1048064
gpgpu_n_tex_insn = 0
gpgpu_n_const_mem_insn = 0
gpgpu_n_param_mem_insn = 622848
gpgpu_n_shmem_bkconflict = 0
gpgpu_n_cache_bkconflict = 0
gpgpu_n_intrawarp_mshr_merge = 0
gpgpu_n_cmem_portconflict = 3264
gpgpu_stall_shd_mem[c_mem][bk_conf] = 3264
gpgpu_stall_shd_mem[c_mem][mshr_rc] = 0
gpgpu_stall_shd_mem[c_mem][icnt_rc] = 0
gpgpu_stall_shd_mem[c_mem][data_port_stall] = 0
gpgpu_stall_shd_mem[t_mem][mshr_rc] = 0
gpgpu_stall_shd_mem[t_mem][icnt_rc] = 0
gpgpu_stall_shd_mem[t_mem][data_port_stall] = 0
gpgpu_stall_shd_mem[s_mem][bk_conf] = 0
gpgpu_stall_shd_mem[gl_mem][bk_conf] = 0
gpgpu_stall_shd_mem[gl_mem][coal_stall] = 465204
gpgpu_stall_shd_mem[gl_mem][data_port_stall] = 0
gpgpu_stall_shd_mem[g_mem_ld][mshr_rc] = 0
gpgpu_stall_shd_mem[g_mem_ld][icnt_rc] = 0
gpgpu_stall_shd_mem[g_mem_ld][wb_icnt_rc] = 0
gpgpu_stall_shd_mem[g_mem_ld][wb_rsrv_fail] = 0
gpgpu_stall_shd_mem[g_mem_st][mshr_rc] = 0
gpgpu_stall_shd_mem[g_mem_st][icnt_rc] = 0
gpgpu_stall_shd_mem[g_mem_st][wb_icnt_rc] = 0
gpgpu_stall_shd_mem[g_mem_st][wb_rsrv_fail] = 0
gpgpu_stall_shd_mem[l_mem_ld][mshr_rc] = 0
gpgpu_stall_shd_mem[l_mem_ld][icnt_rc] = 0
gpgpu_stall_shd_mem[l_mem_ld][wb_icnt_rc] = 0
gpgpu_stall_shd_mem[l_mem_ld][wb_rsrv_fail] = 0
gpgpu_stall_shd_mem[l_mem_st][mshr_rc] = 0
gpgpu_stall_shd_mem[l_mem_st][icnt_rc] = 0
gpgpu_stall_shd_mem[l_mem_ld][wb_icnt_rc] = 0
gpgpu_stall_shd_mem[l_mem_ld][wb_rsrv_fail] = 0
gpu_reg_bank_conflict_stalls = 0
Warp Occupancy Distribution:
Stall:589866	W0_Idle:27030	W0_Scoreboard:308392	W1:6656	W2:5120	W3:0	W4:5120	W5:0	W6:0	W7:0	W8:5120	W9:0	W10:0	W11:0	W12:0	W13:0	W14:0	W15:0	W16:5120	W17:0	W18:0	W19:0	W20:0	W21:0	W22:0	W23:0	W24:0	W25:0	W26:0	W27:0	W28:0	W29:0	W30:0	W31:0	W32:795648
traffic_breakdown_coretomem[CONST_ACC_R] = 120 {8:15,}
traffic_breakdown_coretomem[GLOBAL_ACC_R] = 524288 {8:65536,}
traffic_breakdown_coretomem[GLOBAL_ACC_W] = 10240 {40:256,}
traffic_breakdown_coretomem[INST_ACC_R] = 840 {8:105,}
traffic_breakdown_memtocore[CONST_ACC_R] = 1080 {72:15,}
traffic_breakdown_memtocore[GLOBAL_ACC_R] = 8912896 {136:65536,}
traffic_breakdown_memtocore[GLOBAL_ACC_W] = 2048 {8:256,}
traffic_breakdown_memtocore[INST_ACC_R] = 14280 {136:105,}
maxmrqlatency = 576 
maxdqlatency = 0 
maxmflatency = 1003 
averagemflatency = 354 
max_icnt2mem_latency = 458 
max_icnt2sh_latency = 61014 
mrq_lat_table:39431 	1714 	2022 	4221 	7559 	6505 	3570 	533 	21 	4 	0 	0 	0 	0 	0 	0 	0 	0 	0 	0 	0 	0 	0 	0 	0 	0 	0 	0 	0 	0 	0 	0 	
dq_lat_table:0 	0 	0 	0 	0 	0 	0 	0 	0 	0 	0 	0 	0 	0 	0 	0 	0 	0 	0 	0 	0 	0 	0 	0 	0 	0 	0 	0 	0 	0 	0 	0 	
mf_lat_table:0 	0 	0 	0 	0 	0 	0 	201 	61161 	4445 	0 	0 	0 	0 	0 	0 	0 	0 	0 	0 	0 	0 	0 	0 	0 	0 	0 	0 	0 	0 	0 	0 	
icnt2mem_lat_table:0 	0 	0 	59398 	1441 	1687 	1976 	1281 	129 	0 	0 	0 	0 	0 	0 	0 	0 	0 	0 	0 	0 	0 	0 	0 	
icnt2sh_lat_table:0 	0 	0 	9582 	39342 	16329 	298 	0 	0 	0 	0 	0 	0 	0 	101 	155 	0 	0 	0 	0 	0 	0 	0 	0 	
mf_lat_pw_table:0 	0 	0 	0 	0 	0 	0 	3 	116 	0 	0 	0 	0 	0 	0 	0 	0 	0 	0 	0 	0 	0 	0 	0 	0 	0 	0 	0 	0 	0 	0 	0 	
maximum concurrent accesses to same row:
dram[0]:         6         6         5         6         6         6         5         4         6         6         6         6         6         6        11         8 
dram[1]:         6         6         6         6         6         6         5         4         6         6         6        10         6         6         8         6 
dram[2]:         6         6         6         6         6         6         5         5         6         6         6         8         6         6         8         9 
dram[3]:         6         6         6         6         6         6         4         6         6         6         7         6         6         6         4         6 
dram[4]:         6         6         6         6         6         4         5         5         6         6         6         5         6         6        12         6 
dram[5]:         6         6         5         6         6         6         5         6         6         6         6         6         6         6        10         5 
maximum service time to same row:
dram[0]:      1046      1931      1913      1916      1929      1921      1938      1913      1906      1947      1910      1950      1932      1937      2575      2090 
dram[1]:      1431      1935      1917      1921      1933      1925      1944      1916      1913      1951      1915      1987      1937      1941      2141      1932 
dram[2]:      1939      1907      1921      1938      1943      1929      1949      1909      1915      1922      1919      1925      1941      1960      2172      2612 
dram[3]:      1944      1910      1925      1943      1947      1931      1954      1915      1919      1926      1922      1929      1945      1965      2086      1949 
dram[4]:      1922      1915      1907      1949      1913      1938      1904      1919      1937      1931      1938      1932      1929      1972      3524      1954 
dram[5]:      1926      1919      1910      1953      1916      1941      1909      1922      1941      1935      1943      1938      1932      1975      2516      1957 
average row accesses per activate:
dram[0]:  1.300578  1.322835  1.312500  1.335984  1.383367  1.366733  1.338403  1.361702  1.366990  1.445585  1.346457  1.345631  1.388430  1.357576  1.315068  1.320236 
dram[1]:  1.303675  1.338645  1.354839  1.341317  1.294118  1.296578  1.328302  1.306122  1.427992  1.375000  1.351779  1.336576  1.405858  1.405858  1.454545  1.299807 
dram[2]:  1.298651  1.317647  1.371429  1.346693  1.321705  1.416149  1.356455  1.346080  1.377691  1.402390  1.305344  1.380567  1.377049  1.391304  1.335984  1.388430 
dram[3]:  1.343313  1.344000  1.312500  1.344000  1.334638  1.325581  1.359073  1.294118  1.427992  1.416499  1.335938  1.350495  1.426752  1.402923  1.315068  1.377049 
dram[4]:  1.360324  1.335984  1.349398  1.317647  1.420833  1.338552  1.380392  1.328302  1.419355  1.391304  1.435052  1.286792  1.467249  1.322835  1.338645  1.302326 
dram[5]:  1.344000  1.328063  1.391304  1.320236  1.369478  1.323017  1.369650  1.383104  1.419355  1.419355  1.370518  1.364000  1.503356  1.397089  1.414737  1.344000 
average row locality = 65580/48275 = 1.358467
number of total memory accesses made:
dram[0]:         0         0         0         0         0         0         0         0         0         0         0         0         0         0         0         0 
dram[1]:         0         0         0         0         0         0         0         0         0         0         0         0         0         0         0         0 
dram[2]:         0         0         0         0         0         0         0         0         0         0         0         0         0         0         0         0 
dram[3]:         0         0         0         0         0         0         0         0         0         0         0         0         0         0         0         0 
dram[4]:         0         0         0         0         0         0         0         0         0         0         0         0         0         0         0         0 
dram[5]:         0         0         0         0         0         0         0         0         0         0         0         0         0         0         0         0 
total accesses: 0
min_bank_accesses = 0!
min_chip_accesses = 0!
number of total read accesses:
dram[0]:       675       672       672       672       682       682       704       704       704       704       684       685       672       672       672       672 
dram[1]:       674       672       672       672       682       682       704       704       704       704       684       684       672       672       672       672 
dram[2]:       674       672       672       672       682       684       704       704       704       704       684       682       672       672       672       672 
dram[3]:       673       672       672       672       682       684       704       704       704       704       684       682       672       672       672       672 
dram[4]:       672       672       672       672       682       684       704       704       704       704       685       682       672       672       672       672 
dram[5]:       672       672       672       672       682       684       704       704       704       704       684       682       672       672       672       672 
total reads: 65554
bank skew: 704/672 = 1.05
chip skew: 10928/10924 = 1.00
number of total write accesses:
dram[0]:         0         0         0         0         0         0         0         0         0         0         0         8         0         0         0         0 
dram[1]:         0         0         0         0         0         0         0         0         0         0         0         3         0         0         0         0 
dram[2]:         0         0         0         0         0         0         0         0         0         0         0         0         0         0         0         0 
dram[3]:         0         0         0         0         0         0         0         0         0         0         0         0         0         0         0         0 
dram[4]:         0         0         0         0         0         0         0         0         0         0        11         0         0         0         0         0 
dram[5]:         0         0         0         0         0         0         0         0         0         0         4         0         0         0         0         0 
total reads: 26
min_bank_accesses = 0!
min_chip_accesses = 0!
average mf latency per bank:
dram[0]:        350       342       343       347       338       343       345       345       339       339       339       356       339       344       344       352
dram[1]:        321       319       321       321       326       320       330       320       319       320       322       333       324       319       323       322
dram[2]:        338       375       342       380       344       380       349       374       338       361       344       363       346       374       350       375
dram[3]:        344       334       338       330       340       334       350       342       343       327       343       334       347       336       347       336
dram[4]:        440       338       427       341       441       351       449       346       429       338       468       337       441       341       444       345
dram[5]:        400       344       399       344       407       344       404       343       388       338       410       342       392       345       402       353
maximum mf latency per bank:
dram[0]:        610       588       625       692       593       648       688       720       702       616       676       588       657       616       633       639
dram[1]:        605       547       589       507       624       540       634       516       627       518       593       559       586       533       604       540
dram[2]:        597       692       617       757       606       775       608       730       703       727       646       729       572       694       730       688
dram[3]:        694       580       593       605       775       610       753       755       611       622       644       641       650       663       713       682
dram[4]:        869       591       888       594       917       662       961       692       971       578       958       562       875       595      1003       594
dram[5]:        752       572       741       590       852       552       846       593       792       627       846       586       824       646       838       649

Number of Memory Banks Accessed per Memory Operation per Warp (from 0):
0	0	0	0	0	0	0	0	0	0	0	0	0	0	0	0	0	0	0	0	0	0	0	0	0	0	0	0	0	0	0	0	0	0	0	0	0	0	0	0	0	0	0	0	0	0	0	0	0	0	0	0	0	0	0	0	0	0	0	0	0	0	0	0	0	0	0	0	0	0	0	0	0	0	0	0	0	0	0	0	0	0	0	0	0	0	0	0	0	0	0	0	0	0	0	0	
Average # of Memory Banks Accessed per Memory Operation per Warp=-nan

position of mrq chosen
0	0	0	0	0	0	0	0	0	0	0	0	0	0	0	0	

average position of mrq chosen = -nan
Memory Partition 0: 
Cache L2_bank_000:
MSHR contents

Cache L2_bank_001:
MSHR contents

In Dram Latency Queue (total = 0): 
DRAM[0]: 16 bks, busW=4 BL=8 CL=12, tRRD=2 tCCD=6, tRCD=12 tRAS=28 tRP=12 tRC=40
n_cmd=80539 n_nop=42486 n_act=8101 n_pre=8085 n_req=10936 n_rd=21856 n_write=11 bw_util=0.543
n_activity=73047 dram_eff=0.5987
bk0: 1350a 56535i bk1: 1344a 56385i bk2: 1344a 56360i bk3: 1344a 55875i bk4: 1364a 55902i bk5: 1364a 55807i bk6: 1408a 54808i bk7: 1408a 53531i bk8: 1408a 56548i bk9: 1408a 57270i bk10: 1368a 56476i bk11: 1370a 55283i bk12: 1344a 57051i bk13: 1344a 55915i bk14: 1344a 55054i bk15: 1344a 55070i 
dram_util_bins: 0 0 0 0 0 0 0 0 0 0
dram_eff_bins: 0 0 0 0 0 0 0 0 0 0
mrqq: max=16 avg=2.1998
Memory Partition 1: 
Cache L2_bank_002:
MSHR contents

Cache L2_bank_003:
MSHR contents

In Dram Latency Queue (total = 0): 
DRAM[1]: 16 bks, busW=4 BL=8 CL=12, tRRD=2 tCCD=6, tRCD=12 tRAS=28 tRP=12 tRC=40
n_cmd=80539 n_nop=42504 n_act=8098 n_pre=8082 n_req=10929 n_rd=21852 n_write=3 bw_util=0.5427
n_activity=73245 dram_eff=0.5968
bk0: 1348a 57300i bk1: 1344a 57991i bk2: 1344a 57988i bk3: 1344a 57462i bk4: 1364a 56219i bk5: 1364a 56477i bk6: 1408a 55860i bk7: 1408a 55432i bk8: 1408a 58350i bk9: 1408a 57248i bk10: 1368a 57612i bk11: 1368a 56969i bk12: 1344a 58259i bk13: 1344a 57843i bk14: 1344a 57664i bk15: 1344a 56390i 
dram_util_bins: 0 0 0 0 0 0 0 0 0 0
dram_eff_bins: 0 0 0 0 0 0 0 0 0 0
mrqq: max=16 avg=1.60833
Memory Partition 2: 
Cache L2_bank_004:
MSHR contents

Cache L2_bank_005:
MSHR contents

In Dram Latency Queue (total = 0): 
DRAM[2]: 16 bks, busW=4 BL=8 CL=12, tRRD=2 tCCD=6, tRCD=12 tRAS=28 tRP=12 tRC=40
n_cmd=80539 n_nop=42607 n_act=8048 n_pre=8032 n_req=10926 n_rd=21852 n_write=0 bw_util=0.5426
n_activity=73026 dram_eff=0.5985
bk0: 1348a 56530i bk1: 1344a 55199i bk2: 1344a 56831i bk3: 1344a 55545i bk4: 1364a 55717i bk5: 1368a 55361i bk6: 1408a 53846i bk7: 1408a 52175i bk8: 1408a 56075i bk9: 1408a 55646i bk10: 1368a 55150i bk11: 1364a 55804i bk12: 1344a 56382i bk13: 1344a 55141i bk14: 1344a 54678i bk15: 1344a 54306i 
dram_util_bins: 0 0 0 0 0 0 0 0 0 0
dram_eff_bins: 0 0 0 0 0 0 0 0 0 0
mrqq: max=16 avg=2.59714
Memory Partition 3: 
Cache L2_bank_006:
MSHR contents

Cache L2_bank_007:
MSHR contents

In Dram Latency Queue (total = 0): 
DRAM[3]: 16 bks, busW=4 BL=8 CL=12, tRRD=2 tCCD=6, tRCD=12 tRAS=28 tRP=12 tRC=40
n_cmd=80539 n_nop=42589 n_act=8058 n_pre=8042 n_req=10925 n_rd=21850 n_write=0 bw_util=0.5426
n_activity=73219 dram_eff=0.5968
bk0: 1346a 57583i bk1: 1344a 57409i bk2: 1344a 56759i bk3: 1344a 57015i bk4: 1364a 56078i bk5: 1368a 55744i bk6: 1408a 54663i bk7: 1408a 53577i bk8: 1408a 57553i bk9: 1408a 57162i bk10: 1368a 56254i bk11: 1364a 56529i bk12: 1344a 57369i bk13: 1344a 56447i bk14: 1344a 55258i bk15: 1344a 55109i 
dram_util_bins: 0 0 0 0 0 0 0 0 0 0
dram_eff_bins: 0 0 0 0 0 0 0 0 0 0
mrqq: max=16 avg=2.13064
Memory Partition 4: 
Cache L2_bank_008:
MSHR contents

Cache L2_bank_009:
MSHR contents

In Dram Latency Queue (total = 0): 
DRAM[4]: 16 bks, busW=4 BL=8 CL=12, tRRD=2 tCCD=6, tRCD=12 tRAS=28 tRP=12 tRC=40
n_cmd=80539 n_nop=42617 n_act=8037 n_pre=8021 n_req=10936 n_rd=21850 n_write=14 bw_util=0.5429
n_activity=72509 dram_eff=0.6031
bk0: 1344a 54908i bk1: 1344a 55782i bk2: 1344a 54301i bk3: 1344a 55495i bk4: 1364a 53707i bk5: 1368a 53704i bk6: 1408a 51243i bk7: 1408a 52084i bk8: 1408a 54681i bk9: 1408a 55588i bk10: 1370a 52453i bk11: 1364a 54810i bk12: 1344a 54699i bk13: 1344a 53924i bk14: 1344a 52118i bk15: 1344a 53156i 
dram_util_bins: 0 0 0 0 0 0 0 0 0 0
dram_eff_bins: 0 0 0 0 0 0 0 0 0 0
mrqq: max=16 avg=3.4575
Memory Partition 5: 
Cache L2_bank_010:
MSHR contents

Cache L2_bank_011:
MSHR contents

In Dram Latency Queue (total = 0): 
DRAM[5]: 16 bks, busW=4 BL=8 CL=12, tRRD=2 tCCD=6, tRCD=12 tRAS=28 tRP=12 tRC=40
n_cmd=80539 n_nop=42836 n_act=7933 n_pre=7917 n_req=10928 n_rd=21848 n_write=5 bw_util=0.5427
n_activity=73005 dram_eff=0.5987
bk0: 1344a 55623i bk1: 1344a 56487i bk2: 1344a 55485i bk3: 1344a 55380i bk4: 1364a 53877i bk5: 1368a 54075i bk6: 1408a 52676i bk7: 1408a 54248i bk8: 1408a 55724i bk9: 1408a 56675i bk10: 1368a 54632i bk11: 1364a 55669i bk12: 1344a 56235i bk13: 1344a 55956i bk14: 1344a 53775i bk15: 1344a 54721i 
dram_util_bins: 0 0 0 0 0 0 0 0 0 0
dram_eff_bins: 0 0 0 0 0 0 0 0 0 0
mrqq: max=16 avg=2.9373

========= L2 cache stats =========
L2_cache_bank[0]: Access = 5507, Miss = 5465, Miss_rate = 0.992, Pending_hits = 9, Reservation_fails = 853
L2_cache_bank[1]: Access = 5524, Miss = 5463, Miss_rate = 0.989, Pending_hits = 2, Reservation_fails = 1226
L2_cache_bank[2]: Access = 5492, Miss = 5464, Miss_rate = 0.995, Pending_hits = 6, Reservation_fails = 748
L2_cache_bank[3]: Access = 5524, Miss = 5462, Miss_rate = 0.989, Pending_hits = 1, Reservation_fails = 463
L2_cache_bank[4]: Access = 5492, Miss = 5464, Miss_rate = 0.995, Pending_hits = 4, Reservation_fails = 781
L2_cache_bank[5]: Access = 5462, Miss = 5462, Miss_rate = 1.000, Pending_hits = 0, Reservation_fails = 2344
L2_cache_bank[6]: Access = 5477, Miss = 5463, Miss_rate = 0.997, Pending_hits = 3, Reservation_fails = 1211
L2_cache_bank[7]: Access = 5462, Miss = 5462, Miss_rate = 1.000, Pending_hits = 0, Reservation_fails = 569
L2_cache_bank[8]: Access = 5524, Miss = 5463, Miss_rate = 0.989, Pending_hits = 5, Reservation_fails = 5263
L2_cache_bank[9]: Access = 5462, Miss = 5462, Miss_rate = 1.000, Pending_hits = 0, Reservation_fails = 686
L2_cache_bank[10]: Access = 5524, Miss = 5462, Miss_rate = 0.989, Pending_hits = 1, Reservation_fails = 3293
L2_cache_bank[11]: Access = 5462, Miss = 5462, Miss_rate = 1.000, Pending_hits = 0, Reservation_fails = 457
L2_total_cache_accesses = 65912
L2_total_cache_misses = 65554
L2_total_cache_miss_rate = 0.9946
L2_total_cache_pending_hits = 31
L2_total_cache_reservation_fails = 17894
L2_total_cache_breakdown:
	L2_cache_stats_breakdown[GLOBAL_ACC_R][MISS] = 65536
	L2_cache_stats_breakdown[GLOBAL_ACC_R][RESERVATION_FAIL] = 17261
	L2_cache_stats_breakdown[CONST_ACC_R][HIT] = 11
	L2_cache_stats_breakdown[CONST_ACC_R][HIT_RESERVED] = 3
	L2_cache_stats_breakdown[CONST_ACC_R][MISS] = 1
	L2_cache_stats_breakdown[CONST_ACC_R][RESERVATION_FAIL] = 101
	L2_cache_stats_breakdown[GLOBAL_ACC_W][HIT] = 237
	L2_cache_stats_breakdown[GLOBAL_ACC_W][HIT_RESERVED] = 9
	L2_cache_stats_breakdown[GLOBAL_ACC_W][MISS] = 10
	L2_cache_stats_breakdown[GLOBAL_ACC_W][RESERVATION_FAIL] = 13
	L2_cache_stats_breakdown[INST_ACC_R][HIT] = 79
	L2_cache_stats_breakdown[INST_ACC_R][HIT_RESERVED] = 19
	L2_cache_stats_breakdown[INST_ACC_R][MISS] = 7
	L2_cache_stats_breakdown[INST_ACC_R][RESERVATION_FAIL] = 519
L2_cache_data_port_util = 0.001
L2_cache_fill_port_util = 0.358

icnt_total_pkts_mem_to_simt=328506
icnt_total_pkts_simt_to_mem=66168
LD_mem_lat_dist  0 0 0 0 0 0 0 0 0 0 0 0 0 0 0 0 0 0 0 0 0 0 0 0 0 0 0
ST_mem_lat_dist  0 0 0 0 0 0 0 0 0 0 0 0 0 0 0 0 0 0 0 0 0 0 0 0 0 0 0
----------------------------Interconnect-DETAILS--------------------------------
Class 0:
Packet latency average = 16.2422
	minimum = 6
	maximum = 339
Network latency average = 13.5259
	minimum = 6
	maximum = 339
Slowest packet = 25904
Flit latency average = 12.8412
	minimum = 6
	maximum = 339
Slowest flit = 76810
Fragmentation average = 0
	minimum = 0
	maximum = 0
Injected packet rate average = 0.0800192
	minimum = 0.0675244 (at node 0)
	maximum = 0.0905351 (at node 16)
Accepted packet rate average = 0.0800192
	minimum = 0.0675244 (at node 0)
	maximum = 0.0905351 (at node 16)
Injected flit rate average = 0.239573
	minimum = 0.0677866 (at node 0)
	maximum = 0.450791 (at node 15)
Accepted flit rate average= 0.239573
	minimum = 0.089519 (at node 20)
	maximum = 0.37853 (at node 1)
Injected packet length average = 2.99395
Accepted packet length average = 2.99395
Total in-flight flits = 0 (0 measured)
====== Overall Traffic Statistics ======
====== Traffic class 0 ======
Packet latency average = 16.2422 (1 samples)
	minimum = 6 (1 samples)
	maximum = 339 (1 samples)
Network latency average = 13.5259 (1 samples)
	minimum = 6 (1 samples)
	maximum = 339 (1 samples)
Flit latency average = 12.8412 (1 samples)
	minimum = 6 (1 samples)
	maximum = 339 (1 samples)
Fragmentation average = 0 (1 samples)
	minimum = 0 (1 samples)
	maximum = 0 (1 samples)
Injected packet rate average = 0.0800192 (1 samples)
	minimum = 0.0675244 (1 samples)
	maximum = 0.0905351 (1 samples)
Accepted packet rate average = 0.0800192 (1 samples)
	minimum = 0.0675244 (1 samples)
	maximum = 0.0905351 (1 samples)
Injected flit rate average = 0.239573 (1 samples)
	minimum = 0.0677866 (1 samples)
	maximum = 0.450791 (1 samples)
Accepted flit rate average = 0.239573 (1 samples)
	minimum = 0.089519 (1 samples)
	maximum = 0.37853 (1 samples)
Injected packet size average = 2.99395 (1 samples)
Accepted packet size average = 2.99395 (1 samples)
Hops average = 1 (1 samples)
----------------------------END-of-Interconnect-DETAILS-------------------------
GPGPU-Sim API: Stream Manager State


gpgpu_simulation_time = 0 days, 0 hrs, 1 min, 47 sec (107 sec)
gpgpu_simulation_rate = 228426 (inst/sec)
gpgpu_simulation_rate = 570 (cycle/sec)
GPGPU-Sim: detected inactive GPU simulation thread
GPU time: 106097.898438 msecs.
Reading back GPU result...
Checking GPU results...
..running CPU scalar product calculation
...comparing the results
L1 error: 3.070748E-08
TEST PASSED
Shutting down...
