

        *** GPGPU-Sim Simulator Version 3.2.2  [build 0] ***


GPGPU-Sim PTX: simulation mode 0 (can change with PTX_SIM_MODE_FUNC environment variable:
               1=functional simulation only, 0=detailed performance simulator)
GPGPU-Sim: Configuration options:

-network_mode                           1 # Interconnection network mode
-inter_config_file   config_fermi_islip.icnt # Interconnection network config file
-gpgpu_ptx_use_cuobjdump                    1 # Use cuobjdump to extract ptx and sass from binaries
-gpgpu_experimental_lib_support                    0 # Try to extract code from cuda libraries [Broken because of unknown cudaGetExportTable]
-gpgpu_ptx_convert_to_ptxplus                    0 # Convert SASS (native ISA) to ptxplus and run ptxplus
-gpgpu_ptx_force_max_capability                   20 # Force maximum compute capability
-gpgpu_ptx_inst_debug_to_file                    0 # Dump executed instructions' debug information to file
-gpgpu_ptx_inst_debug_file       inst_debug.txt # Executed instructions' debug output file
-gpgpu_ptx_inst_debug_thread_uid                    1 # Thread UID for executed instructions' debug output
-gpgpu_simd_model                       1 # 1 = post-dominator
-gpgpu_shader_core_pipeline              1536:32 # shader core pipeline config, i.e., {<nthread>:<warpsize>}
-gpgpu_tex_cache:l1  4:128:24,L:R:m:N:L,F:128:4,128:2 # per-shader L1 texture cache  (READ-ONLY) config  {<nsets>:<bsize>:<assoc>,<rep>:<wr>:<alloc>:<wr_alloc>,<mshr>:<N>:<merge>,<mq>:<rf>}
-gpgpu_const_cache:l1 64:64:2,L:R:f:N:L,A:2:32,4 # per-shader L1 constant memory cache  (READ-ONLY) config  {<nsets>:<bsize>:<assoc>,<rep>:<wr>:<alloc>:<wr_alloc>,<mshr>:<N>:<merge>,<mq>} 
-gpgpu_cache:il1     4:128:4,L:R:f:N:L,A:2:32,4 # shader L1 instruction cache config  {<nsets>:<bsize>:<assoc>,<rep>:<wr>:<alloc>:<wr_alloc>,<mshr>:<N>:<merge>,<mq>} 
-gpgpu_cache:dl1     16:128:4,L:L:m:N:L,A:32:8,8 # per-shader L1 data cache config  {<nsets>:<bsize>:<assoc>,<rep>:<wr>:<alloc>:<wr_alloc>,<mshr>:<N>:<merge>,<mq> | none}
-gpgpu_cache:dl1PrefL1                 none # per-shader L1 data cache config  {<nsets>:<bsize>:<assoc>,<rep>:<wr>:<alloc>:<wr_alloc>,<mshr>:<N>:<merge>,<mq> | none}
-gpgpu_cache:dl1PreShared                 none # per-shader L1 data cache config  {<nsets>:<bsize>:<assoc>,<rep>:<wr>:<alloc>:<wr_alloc>,<mshr>:<N>:<merge>,<mq> | none}
-gmem_skip_L1D                          0 # global memory access skip L1D cache (implements -Xptxas -dlcm=cg, default=no skip)
-gpgpu_perfect_mem                      0 # enable perfect memory mode (no cache miss)
-n_regfile_gating_group                    4 # group of lanes that should be read/written together)
-gpgpu_clock_gated_reg_file                    0 # enable clock gated reg file for power calculations
-gpgpu_clock_gated_lanes                    0 # enable clock gated lanes for power calculations
-gpgpu_shader_registers                32768 # Number of registers per shader core. Limits number of concurrent CTAs. (default 8192)
-gpgpu_shader_cta                       8 # Maximum number of concurrent CTAs in shader (default 8)
-gpgpu_num_cta_barriers                   16 # Maximum number of named barriers per CTA (default 16)
-gpgpu_n_clusters                      15 # number of processing clusters
-gpgpu_n_cores_per_cluster                    1 # number of simd cores per cluster
-gpgpu_n_cluster_ejection_buffer_size                    8 # number of packets in ejection buffer
-gpgpu_n_ldst_response_buffer_size                    2 # number of response packets in ld/st unit ejection buffer
-gpgpu_shmem_size                   16384 # Size of shared memory per shader core (default 16kB)
-gpgpu_shmem_size                   49152 # Size of shared memory per shader core (default 16kB)
-gpgpu_shmem_size_PrefL1                16384 # Size of shared memory per shader core (default 16kB)
-gpgpu_shmem_size_PrefShared                16384 # Size of shared memory per shader core (default 16kB)
-gpgpu_shmem_num_banks                   32 # Number of banks in the shared memory in each shader core (default 16)
-gpgpu_shmem_limited_broadcast                    0 # Limit shared memory to do one broadcast per cycle (default on)
-gpgpu_shmem_warp_parts                    1 # Number of portions a warp is divided into for shared memory bank conflict check 
-gpgpu_warpdistro_shader                   -1 # Specify which shader core to collect the warp size distribution from
-gpgpu_warp_issue_shader                    0 # Specify which shader core to collect the warp issue distribution from
-gpgpu_local_mem_map                    1 # Mapping from local memory space address to simulated GPU physical address space (default = enabled)
-gpgpu_num_reg_banks                   16 # Number of register banks (default = 8)
-gpgpu_reg_bank_use_warp_id                    0 # Use warp ID in mapping registers to banks (default = off)
-gpgpu_operand_collector_num_units_sp                    6 # number of collector units (default = 4)
-gpgpu_operand_collector_num_units_sfu                    8 # number of collector units (default = 4)
-gpgpu_operand_collector_num_units_mem                    2 # number of collector units (default = 2)
-gpgpu_operand_collector_num_units_gen                    0 # number of collector units (default = 0)
-gpgpu_operand_collector_num_in_ports_sp                    2 # number of collector unit in ports (default = 1)
-gpgpu_operand_collector_num_in_ports_sfu                    1 # number of collector unit in ports (default = 1)
-gpgpu_operand_collector_num_in_ports_mem                    1 # number of collector unit in ports (default = 1)
-gpgpu_operand_collector_num_in_ports_gen                    0 # number of collector unit in ports (default = 0)
-gpgpu_operand_collector_num_out_ports_sp                    2 # number of collector unit in ports (default = 1)
-gpgpu_operand_collector_num_out_ports_sfu                    1 # number of collector unit in ports (default = 1)
-gpgpu_operand_collector_num_out_ports_mem                    1 # number of collector unit in ports (default = 1)
-gpgpu_operand_collector_num_out_ports_gen                    0 # number of collector unit in ports (default = 0)
-gpgpu_coalesce_arch                   13 # Coalescing arch (default = 13, anything else is off for now)
-gpgpu_num_sched_per_core                    2 # Number of warp schedulers per core
-gpgpu_max_insn_issue_per_warp                    1 # Max number of instructions that can be issued per warp in one cycle by scheduler
-gpgpu_simt_core_sim_order                    1 # Select the simulation order of cores in a cluster (0=Fix, 1=Round-Robin)
-gpgpu_pipeline_widths        2,1,1,2,1,1,2 # Pipeline widths ID_OC_SP,ID_OC_SFU,ID_OC_MEM,OC_EX_SP,OC_EX_SFU,OC_EX_MEM,EX_WB
-gpgpu_num_sp_units                     2 # Number of SP units (default=1)
-gpgpu_num_sfu_units                    1 # Number of SF units (default=1)
-gpgpu_num_mem_units                    1 # Number if ldst units (default=1) WARNING: not hooked up to anything
-gpgpu_scheduler                      gto # Scheduler configuration: < lrr | gto | two_level_active > If two_level_active:<num_active_warps>:<inner_prioritization>:<outer_prioritization>For complete list of prioritization values see shader.h enum scheduler_prioritization_typeDefault: gto
-gpgpu_dram_scheduler                    1 # 0 = fifo, 1 = FR-FCFS (defaul)
-gpgpu_dram_partition_queues              8:8:8:8 # i2$:$2d:d2$:$2i
-l2_ideal                               0 # Use a ideal L2 cache that always hit
-gpgpu_cache:dl2     64:128:8,L:B:m:W:L,A:32:4,4:0,32 # unified banked L2 data cache config  {<nsets>:<bsize>:<assoc>,<rep>:<wr>:<alloc>:<wr_alloc>,<mshr>:<N>:<merge>,<mq>}
-gpgpu_cache:dl2_texture_only                    0 # L2 cache used for texture only
-gpgpu_n_mem                            6 # number of memory modules (e.g. memory controllers) in gpu
-gpgpu_n_sub_partition_per_mchannel                    2 # number of memory subpartition in each memory module
-gpgpu_n_mem_per_ctrlr                    2 # number of memory chips per memory controller
-gpgpu_memlatency_stat                   14 # track and display latency statistics 0x2 enables MC, 0x4 enables queue logs
-gpgpu_frfcfs_dram_sched_queue_size                   16 # 0 = unlimited (default); # entries per chip
-gpgpu_dram_return_queue_size                  116 # 0 = unlimited (default); # entries per chip
-gpgpu_dram_buswidth                    4 # default = 4 bytes (8 bytes per cycle at DDR)
-gpgpu_dram_burst_length                    8 # Burst length of each DRAM request (default = 4 data bus cycle)
-dram_data_command_freq_ratio                    4 # Frequency ratio between DRAM data bus and command bus (default = 2 times, i.e. DDR)
-gpgpu_dram_timing_opt nbk=16:CCD=2:RRD=6:RCD=12:RAS=28:RP=12:RC=40: CL=12:WL=4:CDLR=5:WR=12:nbkgrp=4:CCDL=3:RTPL=2 # DRAM timing parameters = {nbk:tCCD:tRRD:tRCD:tRAS:tRP:tRC:CL:WL:tCDLR:tWR:nbkgrp:tCCDL:tRTPL}
-rop_latency                          120 # ROP queue latency (default 85)
-dram_latency                         100 # DRAM latency (default 30)
-gpgpu_mem_addr_mapping dramid@8;00000000.00000000.00000000.00000000.0000RRRR.RRRRRRRR.BBBCCCCB.CCSSSSSS # mapping memory address to dram model {dramid@<start bit>;<memory address map>}
-gpgpu_mem_addr_test                    0 # run sweep test to check address mapping for aliased address
-gpgpu_mem_address_mask                    1 # 0 = old addressing mask, 1 = new addressing mask, 2 = new add. mask + flipped bank sel and chip sel bits
-gpuwattch_xml_file  gpuwattch_gtx480.xml # GPUWattch XML file
-power_simulation_enabled                    0 # Turn on power simulator (1=On, 0=Off)
-power_per_cycle_dump                    0 # Dump detailed power output each cycle
-power_trace_enabled                    0 # produce a file for the power trace (1=On, 0=Off)
-power_trace_zlevel                     6 # Compression level of the power trace output log (0=no comp, 9=highest)
-steady_power_levels_enabled                    0 # produce a file for the steady power levels (1=On, 0=Off)
-steady_state_definition                  8:4 # allowed deviation:number of samples
-gpgpu_max_cycle                        0 # terminates gpu simulation early (0 = no limit)
-gpgpu_max_insn                         0 # terminates gpu simulation early (0 = no limit)
-gpgpu_max_cta                          0 # terminates gpu simulation early (0 = no limit)
-gpgpu_runtime_stat                   500 # display runtime statistics such as dram utilization {<freq>:<flag>}
-liveness_message_freq                    1 # Minimum number of seconds between simulation liveness messages (0 = always print)
-gpgpu_flush_l1_cache                    0 # Flush L1 cache at the end of each kernel call
-gpgpu_flush_l2_cache                    0 # Flush L2 cache at the end of each kernel call
-gpgpu_deadlock_detect                    1 # Stop the simulation at deadlock (1=on (default), 0=off)
-gpgpu_ptx_instruction_classification                    0 # if enabled will classify ptx instruction types per kernel (Max 255 kernels now)
-gpgpu_ptx_sim_mode                     0 # Select between Performance (default) or Functional simulation (1)
-gpgpu_clock_domains 700.0:700.0:700.0:924.0 # Clock Domain Frequencies in MhZ {<Core Clock>:<ICNT Clock>:<L2 Clock>:<DRAM Clock>}
-gpgpu_max_concurrent_kernel                    8 # maximum kernels that can run concurrently on GPU
-gpgpu_cflog_interval                    0 # Interval between each snapshot in control flow logger
-visualizer_enabled                     0 # Turn on visualizer output (1=On, 0=Off)
-visualizer_outputfile                 NULL # Specifies the output log file for visualizer
-visualizer_zlevel                      6 # Compression level of the visualizer output log (0=no comp, 9=highest)
-trace_enabled                          0 # Turn on traces
-trace_components                    none # comma seperated list of traces to enable. Complete list found in trace_streams.tup. Default none
-trace_sampling_core                    0 # The core which is printed using CORE_DPRINTF. Default 0
-trace_sampling_memory_partition                   -1 # The memory partition which is printed using MEMPART_DPRINTF. Default -1 (i.e. all)
-enable_ptx_file_line_stats                    1 # Turn on PTX source line statistic profiling. (1 = On)
-ptx_line_stats_filename gpgpu_inst_stats.txt # Output file for PTX source line statistics.
-save_embedded_ptx                      0 # saves ptx files embedded in binary as <n>.ptx
-keep                                   0 # keep intermediate files created by GPGPU-Sim when interfacing with external programs
-gpgpu_ptx_save_converted_ptxplus                    0 # Saved converted ptxplus to a file
-ptx_opcode_latency_int         4,13,4,5,145 # Opcode latencies for integers <ADD,MAX,MUL,MAD,DIV>Default 1,1,19,25,145
-ptx_opcode_latency_fp          4,13,4,5,39 # Opcode latencies for single precision floating points <ADD,MAX,MUL,MAD,DIV>Default 1,1,1,1,30
-ptx_opcode_latency_dp         8,19,8,8,330 # Opcode latencies for double precision floating points <ADD,MAX,MUL,MAD,DIV>Default 8,8,8,8,335
-ptx_opcode_initiation_int            1,2,2,1,8 # Opcode initiation intervals for integers <ADD,MAX,MUL,MAD,DIV>Default 1,1,4,4,32
-ptx_opcode_initiation_fp            1,2,1,1,4 # Opcode initiation intervals for single precision floating points <ADD,MAX,MUL,MAD,DIV>Default 1,1,1,1,5
-ptx_opcode_initiation_dp         8,16,8,8,130 # Opcode initiation intervals for double precision floating points <ADD,MAX,MUL,MAD,DIV>Default 8,8,8,8,130
DRAM Timing Options:
nbk                                    16 # number of banks
CCD                                     2 # column to column delay
RRD                                     6 # minimal delay between activation of rows in different banks
RCD                                    12 # row to column delay
RAS                                    28 # time needed to activate row
RP                                     12 # time needed to precharge (deactivate) row
RC                                     40 # row cycle time
CDLR                                    5 # switching from write to read (changes tWTR)
WR                                     12 # last data-in to row precharge
CL                                     12 # CAS latency
WL                                      4 # Write latency
nbkgrp                                  4 # number of bank groups
CCDL                                    3 # column to column delay between accesses to different bank groups
RTPL                                    2 # read to precharge delay between accesses to different bank groups
Total number of memory sub partition = 12
addr_dec_mask[CHIP]  = 0000000000000000 	high:64 low:0
addr_dec_mask[BK]    = 000000000000e100 	high:16 low:8
addr_dec_mask[ROW]   = 000000000fff0000 	high:28 low:16
addr_dec_mask[COL]   = 0000000000001eff 	high:13 low:0
addr_dec_mask[BURST] = 000000000000003f 	high:6 low:0
sub_partition_id_mask = 0000000000000100
GPGPU-Sim uArch: clock freqs: 700000000.000000:700000000.000000:700000000.000000:924000000.000000
GPGPU-Sim uArch: clock periods: 0.00000000142857142857:0.00000000142857142857:0.00000000142857142857:0.00000000108225108225
*** Initializing Memory Statistics ***
GPGPU-Sim uArch: interconnect node map (shaderID+MemID to icntID)
GPGPU-Sim uArch: Memory nodes ID start from index: 15
GPGPU-Sim uArch:    0   1   2   3   4
GPGPU-Sim uArch:    5   6   7   8   9
GPGPU-Sim uArch:   10  11  12  13  14
GPGPU-Sim uArch:   15  16  17  18  19
GPGPU-Sim uArch:   20  21  22  23  24
GPGPU-Sim uArch:   25  26
GPGPU-Sim uArch: interconnect node reverse map (icntID to shaderID+MemID)
GPGPU-Sim uArch: Memory nodes start from ID: 15
GPGPU-Sim uArch:    0   1   2   3   4
GPGPU-Sim uArch:    5   6   7   8   9
GPGPU-Sim uArch:   10  11  12  13  14
GPGPU-Sim uArch:   15  16  17  18  19
GPGPU-Sim uArch:   20  21  22  23  24
GPGPU-Sim uArch:   25  26
e389dacb331e7fcddf4abf4a164344f1  /sciclone/data20/adwait/applications/benchmarks/CUDA/BlackScholes/gpgpu_ptx_sim__BlackScholes
GPGPU-Sim uArch: performance model initialization complete.
GPGPU-Sim PTX: __cudaRegisterFatBinary, fat_cubin_handle = 1, filename=BlackScholes.cu
self exe links to: /sciclone/data20/adwait/applications/benchmarks/CUDA/BlackScholes/gpgpu_ptx_sim__BlackScholes
Running md5sum using "md5sum /sciclone/data20/adwait/applications/benchmarks/CUDA/BlackScholes/gpgpu_ptx_sim__BlackScholes "
Parsing file _cuobjdump_complete_output_guQVZv
######### cuobjdump parser ########
## Adding new section ELF
Adding arch: sm_20
Adding identifier: BlackScholes.cu
## Adding new section PTX
Adding ptx filename: _cuobjdump_1.ptx
Adding arch: sm_20
Adding identifier: BlackScholes.cu
Done parsing!!!
GPGPU-Sim PTX: __cudaRegisterFunction _Z15BlackScholesGPUPfS_S_S_S_ffi : hostFun 0x0x405752, fat_cubin_handle = 1
GPGPU-Sim PTX: instruction assembly for function '_Z15BlackScholesGPUPfS_S_S_S_ffi'...   done.
GPGPU-Sim PTX: finding reconvergence points for '_Z15BlackScholesGPUPfS_S_S_S_ffi'...
GPGPU-Sim PTX: Finding dominators for '_Z15BlackScholesGPUPfS_S_S_S_ffi'...
GPGPU-Sim PTX: Finding immediate dominators for '_Z15BlackScholesGPUPfS_S_S_S_ffi'...
GPGPU-Sim PTX: Finding postdominators for '_Z15BlackScholesGPUPfS_S_S_S_ffi'...
GPGPU-Sim PTX: Finding immediate postdominators for '_Z15BlackScholesGPUPfS_S_S_S_ffi'...
GPGPU-Sim PTX: pre-decoding instructions for '_Z15BlackScholesGPUPfS_S_S_S_ffi'...
GPGPU-Sim PTX: reconvergence points for _Z15BlackScholesGPUPfS_S_S_S_ffi...
GPGPU-Sim PTX:  1 (potential) branch divergence @  PC=0x040 (_1.ptx:76) @%p1 bra $Lt_0_2818;
GPGPU-Sim PTX:    immediate post dominator      @  PC=0x3f8 (_1.ptx:200) exit;
GPGPU-Sim PTX:  2 (potential) branch divergence @  PC=0x3f0 (_1.ptx:197) @%p4 bra $Lt_0_3330;
GPGPU-Sim PTX:    immediate post dominator      @  PC=0x3f8 (_1.ptx:200) exit;
GPGPU-Sim PTX: ... end of reconvergence points for _Z15BlackScholesGPUPfS_S_S_S_ffi
GPGPU-Sim PTX: ... done pre-decoding instructions for '_Z15BlackScholesGPUPfS_S_S_S_ffi'.
GPGPU-Sim PTX: finished parsing EMBEDDED .ptx file _1.ptx
Adding _cuobjdump_1.ptx with cubin handle 1
GPGPU-Sim PTX: extracting embedded .ptx to temporary file "_ptx_TIwcvu"
Running: cat _ptx_TIwcvu | sed 's/.version 1.5/.version 1.4/' | sed 's/, texmode_independent//' | sed 's/\(\.extern \.const\[1\] .b8 \w\+\)\[\]/\1\[1\]/' | sed 's/const\[.\]/const\[0\]/g' > _ptx2_BP6gSt
GPGPU-Sim PTX: generating ptxinfo using "$CUDA_INSTALL_PATH/bin/ptxas --gpu-name=sm_20 -v _ptx2_BP6gSt --output-file  /dev/null 2> _ptx_TIwcvuinfo"
GPGPU-Sim PTX: Kernel '_Z15BlackScholesGPUPfS_S_S_S_ffi' : regs=31, lmem=0, smem=0, cmem=128
GPGPU-Sim PTX: removing ptxinfo using "rm -f _ptx_TIwcvu _ptx2_BP6gSt _ptx_TIwcvuinfo"
GPGPU-Sim PTX: loading globals with explicit initializers... 
GPGPU-Sim PTX: finished loading globals (0 bytes total).
GPGPU-Sim PTX: loading constants with explicit initializers...  done.
Initializing data...
...allocating CPU memory for options.
...allocating GPU memory for options.
...generating input data in CPU mem.
...copying input data to GPU mem.
Data init done.
Executing Black-Scholes GPU kernel (1 iterations)...
GPGPU-Sim: synchronize waiting for inactive GPU simulation
GPGPU-Sim API: Stream Manager State
GPGPU-Sim: detected inactive GPU simulation thread

GPGPU-Sim PTX: cudaLaunch for 0x0x405752 (mode=performance simulation) on stream 0
GPGPU-Sim PTX: pushing kernel '_Z15BlackScholesGPUPfS_S_S_S_ffi' to stream 0, gridDim= (480,1,1) blockDim = (128,1,1) 
kernel '_Z15BlackScholesGPUPfS_S_S_S_ffi' transfer to GPU hardware scheduler
GPGPU-Sim uArch: Shader 1 bind to kernel 1 '_Z15BlackScholesGPUPfS_S_S_S_ffi'
GPGPU-Sim uArch: CTA/core = 8, limited by: regs cta_limit
GPGPU-Sim uArch: core:  1, cta: 0 initialized @(1,0)
GPGPU-Sim uArch: Shader 2 bind to kernel 1 '_Z15BlackScholesGPUPfS_S_S_S_ffi'
GPGPU-Sim uArch: core:  2, cta: 0 initialized @(1,0)
GPGPU-Sim uArch: Shader 3 bind to kernel 1 '_Z15BlackScholesGPUPfS_S_S_S_ffi'
GPGPU-Sim uArch: core:  3, cta: 0 initialized @(1,0)
GPGPU-Sim uArch: Shader 4 bind to kernel 1 '_Z15BlackScholesGPUPfS_S_S_S_ffi'
GPGPU-Sim uArch: core:  4, cta: 0 initialized @(1,0)
GPGPU-Sim uArch: Shader 5 bind to kernel 1 '_Z15BlackScholesGPUPfS_S_S_S_ffi'
GPGPU-Sim uArch: core:  5, cta: 0 initialized @(1,0)
GPGPU-Sim uArch: Shader 6 bind to kernel 1 '_Z15BlackScholesGPUPfS_S_S_S_ffi'
GPGPU-Sim uArch: core:  6, cta: 0 initialized @(1,0)
GPGPU-Sim uArch: Shader 7 bind to kernel 1 '_Z15BlackScholesGPUPfS_S_S_S_ffi'
GPGPU-Sim uArch: core:  7, cta: 0 initialized @(1,0)
GPGPU-Sim uArch: Shader 8 bind to kernel 1 '_Z15BlackScholesGPUPfS_S_S_S_ffi'
GPGPU-Sim uArch: core:  8, cta: 0 initialized @(1,0)
GPGPU-Sim uArch: Shader 9 bind to kernel 1 '_Z15BlackScholesGPUPfS_S_S_S_ffi'
GPGPU-Sim uArch: core:  9, cta: 0 initialized @(1,0)
GPGPU-Sim uArch: Shader 10 bind to kernel 1 '_Z15BlackScholesGPUPfS_S_S_S_ffi'
GPGPU-Sim uArch: core: 10, cta: 0 initialized @(1,0)
GPGPU-Sim uArch: Shader 11 bind to kernel 1 '_Z15BlackScholesGPUPfS_S_S_S_ffi'
GPGPU-Sim uArch: core: 11, cta: 0 initialized @(1,0)
GPGPU-Sim uArch: Shader 12 bind to kernel 1 '_Z15BlackScholesGPUPfS_S_S_S_ffi'
GPGPU-Sim uArch: core: 12, cta: 0 initialized @(1,0)
GPGPU-Sim uArch: Shader 13 bind to kernel 1 '_Z15BlackScholesGPUPfS_S_S_S_ffi'
GPGPU-Sim uArch: core: 13, cta: 0 initialized @(1,0)
GPGPU-Sim uArch: Shader 14 bind to kernel 1 '_Z15BlackScholesGPUPfS_S_S_S_ffi'
GPGPU-Sim uArch: core: 14, cta: 0 initialized @(1,0)
GPGPU-Sim uArch: Shader 0 bind to kernel 1 '_Z15BlackScholesGPUPfS_S_S_S_ffi'
GPGPU-Sim uArch: core:  0, cta: 0 initialized @(1,0)
GPGPU-Sim uArch: core:  1, cta: 1 initialized @(2,0)
GPGPU-Sim uArch: core:  2, cta: 1 initialized @(2,0)
GPGPU-Sim uArch: core:  3, cta: 1 initialized @(2,0)
GPGPU-Sim uArch: core:  4, cta: 1 initialized @(2,0)
GPGPU-Sim uArch: core:  5, cta: 1 initialized @(2,0)
GPGPU-Sim uArch: core:  6, cta: 1 initialized @(2,0)
GPGPU-Sim uArch: core:  7, cta: 1 initialized @(2,0)
GPGPU-Sim uArch: core:  8, cta: 1 initialized @(2,0)
GPGPU-Sim uArch: core:  9, cta: 1 initialized @(2,0)
GPGPU-Sim uArch: core: 10, cta: 1 initialized @(2,0)
GPGPU-Sim uArch: core: 11, cta: 1 initialized @(2,0)
GPGPU-Sim uArch: core: 12, cta: 1 initialized @(2,0)
GPGPU-Sim uArch: core: 13, cta: 1 initialized @(2,0)
GPGPU-Sim uArch: core: 14, cta: 1 initialized @(2,0)
GPGPU-Sim uArch: core:  0, cta: 1 initialized @(2,0)
GPGPU-Sim uArch: core:  1, cta: 2 initialized @(3,0)
GPGPU-Sim uArch: core:  2, cta: 2 initialized @(3,0)
GPGPU-Sim uArch: core:  3, cta: 2 initialized @(3,0)
GPGPU-Sim uArch: core:  4, cta: 2 initialized @(3,0)
GPGPU-Sim uArch: core:  5, cta: 2 initialized @(3,0)
GPGPU-Sim uArch: core:  6, cta: 2 initialized @(3,0)
GPGPU-Sim uArch: core:  7, cta: 2 initialized @(3,0)
GPGPU-Sim uArch: core:  8, cta: 2 initialized @(3,0)
GPGPU-Sim uArch: core:  9, cta: 2 initialized @(3,0)
GPGPU-Sim uArch: core: 10, cta: 2 initialized @(3,0)
GPGPU-Sim uArch: core: 11, cta: 2 initialized @(3,0)
GPGPU-Sim uArch: core: 12, cta: 2 initialized @(3,0)
GPGPU-Sim uArch: core: 13, cta: 2 initialized @(3,0)
GPGPU-Sim uArch: core: 14, cta: 2 initialized @(3,0)
GPGPU-Sim uArch: core:  0, cta: 2 initialized @(3,0)
GPGPU-Sim uArch: core:  1, cta: 3 initialized @(4,0)
GPGPU-Sim uArch: core:  2, cta: 3 initialized @(4,0)
GPGPU-Sim uArch: core:  3, cta: 3 initialized @(4,0)
GPGPU-Sim uArch: core:  4, cta: 3 initialized @(4,0)
GPGPU-Sim uArch: core:  5, cta: 3 initialized @(4,0)
GPGPU-Sim uArch: core:  6, cta: 3 initialized @(4,0)
GPGPU-Sim uArch: core:  7, cta: 3 initialized @(4,0)
GPGPU-Sim uArch: core:  8, cta: 3 initialized @(4,0)
GPGPU-Sim uArch: core:  9, cta: 3 initialized @(4,0)
GPGPU-Sim uArch: core: 10, cta: 3 initialized @(4,0)
GPGPU-Sim uArch: core: 11, cta: 3 initialized @(4,0)
GPGPU-Sim uArch: core: 12, cta: 3 initialized @(4,0)
GPGPU-Sim uArch: core: 13, cta: 3 initialized @(4,0)
GPGPU-Sim uArch: core: 14, cta: 3 initialized @(4,0)
GPGPU-Sim uArch: core:  0, cta: 3 initialized @(4,0)
GPGPU-Sim uArch: core:  1, cta: 4 initialized @(5,0)
GPGPU-Sim uArch: core:  2, cta: 4 initialized @(5,0)
GPGPU-Sim uArch: core:  3, cta: 4 initialized @(5,0)
GPGPU-Sim uArch: core:  4, cta: 4 initialized @(5,0)
GPGPU-Sim uArch: core:  5, cta: 4 initialized @(5,0)
GPGPU-Sim uArch: core:  6, cta: 4 initialized @(5,0)
GPGPU-Sim uArch: core:  7, cta: 4 initialized @(5,0)
GPGPU-Sim uArch: core:  8, cta: 4 initialized @(5,0)
GPGPU-Sim uArch: core:  9, cta: 4 initialized @(5,0)
GPGPU-Sim uArch: core: 10, cta: 4 initialized @(5,0)
GPGPU-Sim uArch: core: 11, cta: 4 initialized @(5,0)
GPGPU-Sim uArch: core: 12, cta: 4 initialized @(5,0)
GPGPU-Sim uArch: core: 13, cta: 4 initialized @(5,0)
GPGPU-Sim uArch: core: 14, cta: 4 initialized @(5,0)
GPGPU-Sim uArch: core:  0, cta: 4 initialized @(5,0)
GPGPU-Sim uArch: core:  1, cta: 5 initialized @(6,0)
GPGPU-Sim uArch: core:  2, cta: 5 initialized @(6,0)
GPGPU-Sim uArch: core:  3, cta: 5 initialized @(6,0)
GPGPU-Sim uArch: core:  4, cta: 5 initialized @(6,0)
GPGPU-Sim uArch: core:  5, cta: 5 initialized @(6,0)
GPGPU-Sim uArch: core:  6, cta: 5 initialized @(6,0)
GPGPU-Sim uArch: core:  7, cta: 5 initialized @(6,0)
GPGPU-Sim uArch: core:  8, cta: 5 initialized @(6,0)
GPGPU-Sim uArch: core:  9, cta: 5 initialized @(6,0)
GPGPU-Sim uArch: core: 10, cta: 5 initialized @(6,0)
GPGPU-Sim uArch: core: 11, cta: 5 initialized @(6,0)
GPGPU-Sim uArch: core: 12, cta: 5 initialized @(6,0)
GPGPU-Sim uArch: core: 13, cta: 5 initialized @(6,0)
GPGPU-Sim uArch: core: 14, cta: 5 initialized @(6,0)
GPGPU-Sim uArch: core:  0, cta: 5 initialized @(6,0)
GPGPU-Sim uArch: core:  1, cta: 6 initialized @(7,0)
GPGPU-Sim uArch: core:  2, cta: 6 initialized @(7,0)
GPGPU-Sim uArch: core:  3, cta: 6 initialized @(7,0)
GPGPU-Sim uArch: core:  4, cta: 6 initialized @(7,0)
GPGPU-Sim uArch: core:  5, cta: 6 initialized @(7,0)
GPGPU-Sim uArch: core:  6, cta: 6 initialized @(7,0)
GPGPU-Sim uArch: core:  7, cta: 6 initialized @(7,0)
GPGPU-Sim uArch: core:  8, cta: 6 initialized @(7,0)
GPGPU-Sim uArch: core:  9, cta: 6 initialized @(7,0)
GPGPU-Sim uArch: core: 10, cta: 6 initialized @(7,0)
GPGPU-Sim uArch: core: 11, cta: 6 initialized @(7,0)
GPGPU-Sim uArch: core: 12, cta: 6 initialized @(7,0)
GPGPU-Sim uArch: core: 13, cta: 6 initialized @(7,0)
GPGPU-Sim uArch: core: 14, cta: 6 initialized @(7,0)
GPGPU-Sim uArch: core:  0, cta: 6 initialized @(7,0)
GPGPU-Sim uArch: core:  1, cta: 7 initialized @(8,0)
GPGPU-Sim uArch: core:  2, cta: 7 initialized @(8,0)
GPGPU-Sim uArch: core:  3, cta: 7 initialized @(8,0)
GPGPU-Sim uArch: core:  4, cta: 7 initialized @(8,0)
GPGPU-Sim uArch: core:  5, cta: 7 initialized @(8,0)
GPGPU-Sim uArch: core:  6, cta: 7 initialized @(8,0)
GPGPU-Sim uArch: core:  7, cta: 7 initialized @(8,0)
GPGPU-Sim uArch: core:  8, cta: 7 initialized @(8,0)
GPGPU-Sim uArch: core:  9, cta: 7 initialized @(8,0)
GPGPU-Sim uArch: core: 10, cta: 7 initialized @(8,0)
GPGPU-Sim uArch: core: 11, cta: 7 initialized @(8,0)
GPGPU-Sim uArch: core: 12, cta: 7 initialized @(8,0)
GPGPU-Sim uArch: core: 13, cta: 7 initialized @(8,0)
GPGPU-Sim uArch: core: 14, cta: 7 initialized @(8,0)
GPGPU-Sim uArch: core:  0, cta: 7 initialized @(8,0)
GPGPU-Sim PTX: 100000 instructions simulated : ctaid=(27,0,0) tid=(95,0,0)
GPGPU-Sim uArch: cycles simulated: 500  inst.: 92160 (ipc=184.3) sim_rate=30720 (inst/sec) elapsed = 0:0:00:03 / Sun Mar  6 05:31:03 2016
GPGPU-Sim PTX: 200000 instructions simulated : ctaid=(94,0,0) tid=(95,0,0)
GPGPU-Sim PTX: 300000 instructions simulated : ctaid=(53,0,0) tid=(127,0,0)
GPGPU-Sim PTX: 400000 instructions simulated : ctaid=(70,0,0) tid=(127,0,0)
GPGPU-Sim uArch: cycles simulated: 2000  inst.: 457440 (ipc=228.7) sim_rate=114360 (inst/sec) elapsed = 0:0:00:04 / Sun Mar  6 05:31:04 2016
GPGPU-Sim PTX: 500000 instructions simulated : ctaid=(33,0,0) tid=(31,0,0)
GPGPU-Sim PTX: 600000 instructions simulated : ctaid=(98,0,0) tid=(31,0,0)
GPGPU-Sim PTX: 700000 instructions simulated : ctaid=(43,0,0) tid=(31,0,0)
GPGPU-Sim PTX: 800000 instructions simulated : ctaid=(55,0,0) tid=(63,0,0)
GPGPU-Sim PTX: 900000 instructions simulated : ctaid=(70,0,0) tid=(95,0,0)
GPGPU-Sim uArch: cycles simulated: 3000  inst.: 922560 (ipc=307.5) sim_rate=184512 (inst/sec) elapsed = 0:0:00:05 / Sun Mar  6 05:31:05 2016
GPGPU-Sim PTX: 1000000 instructions simulated : ctaid=(50,0,0) tid=(63,0,0)
GPGPU-Sim PTX: 1100000 instructions simulated : ctaid=(34,0,0) tid=(95,0,0)
GPGPU-Sim PTX: 1200000 instructions simulated : ctaid=(7,0,0) tid=(127,0,0)
GPGPU-Sim PTX: 1300000 instructions simulated : ctaid=(8,0,0) tid=(63,0,0)
GPGPU-Sim PTX: 1400000 instructions simulated : ctaid=(83,0,0) tid=(95,0,0)
GPGPU-Sim PTX: 1500000 instructions simulated : ctaid=(60,0,0) tid=(63,0,0)
GPGPU-Sim uArch: cycles simulated: 4000  inst.: 1544032 (ipc=386.0) sim_rate=257338 (inst/sec) elapsed = 0:0:00:06 / Sun Mar  6 05:31:06 2016
GPGPU-Sim PTX: 1600000 instructions simulated : ctaid=(61,0,0) tid=(63,0,0)
GPGPU-Sim PTX: 1700000 instructions simulated : ctaid=(86,0,0) tid=(63,0,0)
GPGPU-Sim PTX: 1800000 instructions simulated : ctaid=(119,0,0) tid=(63,0,0)
GPGPU-Sim uArch: cycles simulated: 5000  inst.: 1843072 (ipc=368.6) sim_rate=263296 (inst/sec) elapsed = 0:0:00:07 / Sun Mar  6 05:31:07 2016
GPGPU-Sim PTX: 1900000 instructions simulated : ctaid=(16,0,0) tid=(95,0,0)
GPGPU-Sim PTX: 2000000 instructions simulated : ctaid=(8,0,0) tid=(127,0,0)
GPGPU-Sim PTX: 2100000 instructions simulated : ctaid=(1,0,0) tid=(95,0,0)
GPGPU-Sim PTX: 2200000 instructions simulated : ctaid=(11,0,0) tid=(127,0,0)
GPGPU-Sim PTX: 2300000 instructions simulated : ctaid=(17,0,0) tid=(31,0,0)
GPGPU-Sim PTX: 2400000 instructions simulated : ctaid=(3,0,0) tid=(31,0,0)
GPGPU-Sim uArch: cycles simulated: 6000  inst.: 2425376 (ipc=404.2) sim_rate=303172 (inst/sec) elapsed = 0:0:00:08 / Sun Mar  6 05:31:08 2016
GPGPU-Sim PTX: 2500000 instructions simulated : ctaid=(19,0,0) tid=(127,0,0)
GPGPU-Sim PTX: 2600000 instructions simulated : ctaid=(91,0,0) tid=(95,0,0)
GPGPU-Sim PTX: 2700000 instructions simulated : ctaid=(47,0,0) tid=(63,0,0)
GPGPU-Sim PTX: 2800000 instructions simulated : ctaid=(92,0,0) tid=(31,0,0)
GPGPU-Sim PTX: 2900000 instructions simulated : ctaid=(93,0,0) tid=(31,0,0)
GPGPU-Sim PTX: 3000000 instructions simulated : ctaid=(69,0,0) tid=(63,0,0)
GPGPU-Sim PTX: 3100000 instructions simulated : ctaid=(9,0,0) tid=(95,0,0)
GPGPU-Sim uArch: cycles simulated: 7000  inst.: 3078912 (ipc=439.8) sim_rate=342101 (inst/sec) elapsed = 0:0:00:09 / Sun Mar  6 05:31:09 2016
GPGPU-Sim PTX: 3200000 instructions simulated : ctaid=(94,0,0) tid=(63,0,0)
GPGPU-Sim PTX: 3300000 instructions simulated : ctaid=(3,0,0) tid=(95,0,0)
GPGPU-Sim PTX: 3400000 instructions simulated : ctaid=(95,0,0) tid=(63,0,0)
GPGPU-Sim PTX: 3500000 instructions simulated : ctaid=(36,0,0) tid=(127,0,0)
GPGPU-Sim PTX: 3600000 instructions simulated : ctaid=(43,0,0) tid=(31,0,0)
GPGPU-Sim uArch: cycles simulated: 8000  inst.: 3654880 (ipc=456.9) sim_rate=365488 (inst/sec) elapsed = 0:0:00:10 / Sun Mar  6 05:31:10 2016
GPGPU-Sim PTX: 3700000 instructions simulated : ctaid=(42,0,0) tid=(63,0,0)
GPGPU-Sim PTX: 3800000 instructions simulated : ctaid=(18,0,0) tid=(127,0,0)
GPGPU-Sim PTX: 3900000 instructions simulated : ctaid=(89,0,0) tid=(31,0,0)
GPGPU-Sim PTX: 4000000 instructions simulated : ctaid=(76,0,0) tid=(31,0,0)
GPGPU-Sim PTX: 4100000 instructions simulated : ctaid=(84,0,0) tid=(31,0,0)
GPGPU-Sim PTX: 4200000 instructions simulated : ctaid=(47,0,0) tid=(127,0,0)
GPGPU-Sim uArch: cycles simulated: 9000  inst.: 4220032 (ipc=468.9) sim_rate=383639 (inst/sec) elapsed = 0:0:00:11 / Sun Mar  6 05:31:11 2016
GPGPU-Sim PTX: 4300000 instructions simulated : ctaid=(43,0,0) tid=(31,0,0)
GPGPU-Sim PTX: 4400000 instructions simulated : ctaid=(50,0,0) tid=(63,0,0)
GPGPU-Sim PTX: 4500000 instructions simulated : ctaid=(18,0,0) tid=(31,0,0)
GPGPU-Sim PTX: 4600000 instructions simulated : ctaid=(24,0,0) tid=(63,0,0)
GPGPU-Sim PTX: 4700000 instructions simulated : ctaid=(0,0,0) tid=(31,0,0)
GPGPU-Sim PTX: 4800000 instructions simulated : ctaid=(19,0,0) tid=(127,0,0)
GPGPU-Sim uArch: cycles simulated: 10000  inst.: 4763392 (ipc=476.3) sim_rate=396949 (inst/sec) elapsed = 0:0:00:12 / Sun Mar  6 05:31:12 2016
GPGPU-Sim PTX: 4900000 instructions simulated : ctaid=(92,0,0) tid=(63,0,0)
GPGPU-Sim PTX: 5000000 instructions simulated : ctaid=(42,0,0) tid=(95,0,0)
GPGPU-Sim uArch: cycles simulated: 10500  inst.: 5049696 (ipc=480.9) sim_rate=388438 (inst/sec) elapsed = 0:0:00:13 / Sun Mar  6 05:31:13 2016
GPGPU-Sim PTX: 5100000 instructions simulated : ctaid=(66,0,0) tid=(95,0,0)
GPGPU-Sim PTX: 5200000 instructions simulated : ctaid=(56,0,0) tid=(95,0,0)
GPGPU-Sim PTX: 5300000 instructions simulated : ctaid=(8,0,0) tid=(127,0,0)
GPGPU-Sim PTX: 5400000 instructions simulated : ctaid=(23,0,0) tid=(63,0,0)
GPGPU-Sim PTX: 5500000 instructions simulated : ctaid=(19,0,0) tid=(127,0,0)
GPGPU-Sim PTX: 5600000 instructions simulated : ctaid=(100,0,0) tid=(31,0,0)
GPGPU-Sim uArch: cycles simulated: 11500  inst.: 5647104 (ipc=491.1) sim_rate=403364 (inst/sec) elapsed = 0:0:00:14 / Sun Mar  6 05:31:14 2016
GPGPU-Sim PTX: 5700000 instructions simulated : ctaid=(23,0,0) tid=(127,0,0)
GPGPU-Sim PTX: 5800000 instructions simulated : ctaid=(4,0,0) tid=(95,0,0)
GPGPU-Sim PTX: 5900000 instructions simulated : ctaid=(22,0,0) tid=(127,0,0)
GPGPU-Sim PTX: 6000000 instructions simulated : ctaid=(72,0,0) tid=(31,0,0)
GPGPU-Sim PTX: 6100000 instructions simulated : ctaid=(26,0,0) tid=(63,0,0)
GPGPU-Sim PTX: 6200000 instructions simulated : ctaid=(56,0,0) tid=(95,0,0)
GPGPU-Sim uArch: cycles simulated: 12500  inst.: 6256864 (ipc=500.5) sim_rate=417124 (inst/sec) elapsed = 0:0:00:15 / Sun Mar  6 05:31:15 2016
GPGPU-Sim PTX: 6300000 instructions simulated : ctaid=(63,0,0) tid=(127,0,0)
GPGPU-Sim PTX: 6400000 instructions simulated : ctaid=(8,0,0) tid=(63,0,0)
GPGPU-Sim PTX: 6500000 instructions simulated : ctaid=(67,0,0) tid=(63,0,0)
GPGPU-Sim PTX: 6600000 instructions simulated : ctaid=(19,0,0) tid=(63,0,0)
GPGPU-Sim PTX: 6700000 instructions simulated : ctaid=(83,0,0) tid=(31,0,0)
GPGPU-Sim PTX: 6800000 instructions simulated : ctaid=(106,0,0) tid=(95,0,0)
GPGPU-Sim PTX: 6900000 instructions simulated : ctaid=(42,0,0) tid=(31,0,0)
GPGPU-Sim uArch: cycles simulated: 13500  inst.: 6875168 (ipc=509.3) sim_rate=429698 (inst/sec) elapsed = 0:0:00:16 / Sun Mar  6 05:31:16 2016
GPGPU-Sim PTX: 7000000 instructions simulated : ctaid=(91,0,0) tid=(63,0,0)
GPGPU-Sim PTX: 7100000 instructions simulated : ctaid=(22,0,0) tid=(63,0,0)
GPGPU-Sim PTX: 7200000 instructions simulated : ctaid=(4,0,0) tid=(63,0,0)
GPGPU-Sim uArch: cycles simulated: 14000  inst.: 7170720 (ipc=512.2) sim_rate=421807 (inst/sec) elapsed = 0:0:00:17 / Sun Mar  6 05:31:17 2016
GPGPU-Sim PTX: 7300000 instructions simulated : ctaid=(28,0,0) tid=(63,0,0)
GPGPU-Sim PTX: 7400000 instructions simulated : ctaid=(38,0,0) tid=(63,0,0)
GPGPU-Sim PTX: 7500000 instructions simulated : ctaid=(61,0,0) tid=(31,0,0)
GPGPU-Sim PTX: 7600000 instructions simulated : ctaid=(1,0,0) tid=(95,0,0)
GPGPU-Sim PTX: 7700000 instructions simulated : ctaid=(29,0,0) tid=(127,0,0)
GPGPU-Sim uArch: cycles simulated: 15000  inst.: 7761568 (ipc=517.4) sim_rate=431198 (inst/sec) elapsed = 0:0:00:18 / Sun Mar  6 05:31:18 2016
GPGPU-Sim PTX: 7800000 instructions simulated : ctaid=(83,0,0) tid=(95,0,0)
GPGPU-Sim PTX: 7900000 instructions simulated : ctaid=(39,0,0) tid=(63,0,0)
GPGPU-Sim PTX: 8000000 instructions simulated : ctaid=(48,0,0) tid=(95,0,0)
GPGPU-Sim PTX: 8100000 instructions simulated : ctaid=(33,0,0) tid=(95,0,0)
GPGPU-Sim PTX: 8200000 instructions simulated : ctaid=(7,0,0) tid=(63,0,0)
GPGPU-Sim PTX: 8300000 instructions simulated : ctaid=(82,0,0) tid=(95,0,0)
GPGPU-Sim PTX: 8400000 instructions simulated : ctaid=(11,0,0) tid=(127,0,0)
GPGPU-Sim uArch: cycles simulated: 16000  inst.: 8367072 (ipc=522.9) sim_rate=440372 (inst/sec) elapsed = 0:0:00:19 / Sun Mar  6 05:31:19 2016
GPGPU-Sim PTX: 8500000 instructions simulated : ctaid=(71,0,0) tid=(95,0,0)
GPGPU-Sim PTX: 8600000 instructions simulated : ctaid=(15,0,0) tid=(63,0,0)
GPGPU-Sim PTX: 8700000 instructions simulated : ctaid=(66,0,0) tid=(95,0,0)
GPGPU-Sim PTX: 8800000 instructions simulated : ctaid=(24,0,0) tid=(63,0,0)
GPGPU-Sim PTX: 8900000 instructions simulated : ctaid=(117,0,0) tid=(31,0,0)
GPGPU-Sim PTX: 9000000 instructions simulated : ctaid=(90,0,0) tid=(95,0,0)
GPGPU-Sim uArch: cycles simulated: 17000  inst.: 8981888 (ipc=528.3) sim_rate=449094 (inst/sec) elapsed = 0:0:00:20 / Sun Mar  6 05:31:20 2016
GPGPU-Sim PTX: 9100000 instructions simulated : ctaid=(89,0,0) tid=(31,0,0)
GPGPU-Sim PTX: 9200000 instructions simulated : ctaid=(50,0,0) tid=(95,0,0)
GPGPU-Sim PTX: 9300000 instructions simulated : ctaid=(65,0,0) tid=(63,0,0)
GPGPU-Sim uArch: cycles simulated: 17500  inst.: 9287904 (ipc=530.7) sim_rate=442281 (inst/sec) elapsed = 0:0:00:21 / Sun Mar  6 05:31:21 2016
GPGPU-Sim PTX: 9400000 instructions simulated : ctaid=(67,0,0) tid=(31,0,0)
GPGPU-Sim PTX: 9500000 instructions simulated : ctaid=(52,0,0) tid=(63,0,0)
GPGPU-Sim PTX: 9600000 instructions simulated : ctaid=(19,0,0) tid=(63,0,0)
GPGPU-Sim uArch: cycles simulated: 18000  inst.: 9595968 (ipc=533.1) sim_rate=436180 (inst/sec) elapsed = 0:0:00:22 / Sun Mar  6 05:31:22 2016
GPGPU-Sim PTX: 9700000 instructions simulated : ctaid=(70,0,0) tid=(63,0,0)
GPGPU-Sim PTX: 9800000 instructions simulated : ctaid=(44,0,0) tid=(95,0,0)
GPGPU-Sim PTX: 9900000 instructions simulated : ctaid=(44,0,0) tid=(95,0,0)
GPGPU-Sim uArch: cycles simulated: 18500  inst.: 9904672 (ipc=535.4) sim_rate=430637 (inst/sec) elapsed = 0:0:00:23 / Sun Mar  6 05:31:23 2016
GPGPU-Sim PTX: 10000000 instructions simulated : ctaid=(40,0,0) tid=(127,0,0)
GPGPU-Sim PTX: 10100000 instructions simulated : ctaid=(108,0,0) tid=(31,0,0)
GPGPU-Sim PTX: 10200000 instructions simulated : ctaid=(102,0,0) tid=(31,0,0)
GPGPU-Sim uArch: cycles simulated: 19000  inst.: 10186944 (ipc=536.2) sim_rate=424456 (inst/sec) elapsed = 0:0:00:24 / Sun Mar  6 05:31:24 2016
GPGPU-Sim PTX: 10300000 instructions simulated : ctaid=(73,0,0) tid=(63,0,0)
GPGPU-Sim PTX: 10400000 instructions simulated : ctaid=(29,0,0) tid=(31,0,0)
GPGPU-Sim PTX: 10500000 instructions simulated : ctaid=(54,0,0) tid=(63,0,0)
GPGPU-Sim PTX: 10600000 instructions simulated : ctaid=(67,0,0) tid=(31,0,0)
GPGPU-Sim PTX: 10700000 instructions simulated : ctaid=(6,0,0) tid=(95,0,0)
GPGPU-Sim PTX: 10800000 instructions simulated : ctaid=(54,0,0) tid=(127,0,0)
GPGPU-Sim uArch: cycles simulated: 20000  inst.: 10787936 (ipc=539.4) sim_rate=431517 (inst/sec) elapsed = 0:0:00:25 / Sun Mar  6 05:31:25 2016
GPGPU-Sim PTX: 10900000 instructions simulated : ctaid=(69,0,0) tid=(31,0,0)
GPGPU-Sim PTX: 11000000 instructions simulated : ctaid=(28,0,0) tid=(31,0,0)
GPGPU-Sim uArch: cycles simulated: 20500  inst.: 11054752 (ipc=539.3) sim_rate=425182 (inst/sec) elapsed = 0:0:00:26 / Sun Mar  6 05:31:26 2016
GPGPU-Sim PTX: 11100000 instructions simulated : ctaid=(30,0,0) tid=(127,0,0)
GPGPU-Sim PTX: 11200000 instructions simulated : ctaid=(4,0,0) tid=(31,0,0)
GPGPU-Sim PTX: 11300000 instructions simulated : ctaid=(1,0,0) tid=(95,0,0)
GPGPU-Sim uArch: cycles simulated: 21000  inst.: 11357376 (ipc=540.8) sim_rate=420643 (inst/sec) elapsed = 0:0:00:27 / Sun Mar  6 05:31:27 2016
GPGPU-Sim PTX: 11400000 instructions simulated : ctaid=(59,0,0) tid=(95,0,0)
GPGPU-Sim PTX: 11500000 instructions simulated : ctaid=(52,0,0) tid=(31,0,0)
GPGPU-Sim PTX: 11600000 instructions simulated : ctaid=(9,0,0) tid=(31,0,0)
GPGPU-Sim uArch: cycles simulated: 21500  inst.: 11650976 (ipc=541.9) sim_rate=416106 (inst/sec) elapsed = 0:0:00:28 / Sun Mar  6 05:31:28 2016
GPGPU-Sim PTX: 11700000 instructions simulated : ctaid=(45,0,0) tid=(127,0,0)
GPGPU-Sim PTX: 11800000 instructions simulated : ctaid=(44,0,0) tid=(95,0,0)
GPGPU-Sim PTX: 11900000 instructions simulated : ctaid=(55,0,0) tid=(127,0,0)
GPGPU-Sim uArch: cycles simulated: 22000  inst.: 11935296 (ipc=542.5) sim_rate=411561 (inst/sec) elapsed = 0:0:00:29 / Sun Mar  6 05:31:29 2016
GPGPU-Sim PTX: 12000000 instructions simulated : ctaid=(52,0,0) tid=(63,0,0)
GPGPU-Sim PTX: 12100000 instructions simulated : ctaid=(55,0,0) tid=(63,0,0)
GPGPU-Sim PTX: 12200000 instructions simulated : ctaid=(16,0,0) tid=(31,0,0)
GPGPU-Sim PTX: 12300000 instructions simulated : ctaid=(7,0,0) tid=(95,0,0)
GPGPU-Sim PTX: 12400000 instructions simulated : ctaid=(16,0,0) tid=(95,0,0)
GPGPU-Sim PTX: 12500000 instructions simulated : ctaid=(30,0,0) tid=(63,0,0)
GPGPU-Sim uArch: cycles simulated: 23000  inst.: 12523072 (ipc=544.5) sim_rate=417435 (inst/sec) elapsed = 0:0:00:30 / Sun Mar  6 05:31:30 2016
GPGPU-Sim PTX: 12600000 instructions simulated : ctaid=(11,0,0) tid=(63,0,0)
GPGPU-Sim PTX: 12700000 instructions simulated : ctaid=(62,0,0) tid=(127,0,0)
GPGPU-Sim PTX: 12800000 instructions simulated : ctaid=(103,0,0) tid=(63,0,0)
GPGPU-Sim uArch: cycles simulated: 23500  inst.: 12837088 (ipc=546.3) sim_rate=414099 (inst/sec) elapsed = 0:0:00:31 / Sun Mar  6 05:31:31 2016
GPGPU-Sim PTX: 12900000 instructions simulated : ctaid=(67,0,0) tid=(63,0,0)
GPGPU-Sim PTX: 13000000 instructions simulated : ctaid=(94,0,0) tid=(31,0,0)
GPGPU-Sim PTX: 13100000 instructions simulated : ctaid=(53,0,0) tid=(95,0,0)
GPGPU-Sim PTX: 13200000 instructions simulated : ctaid=(97,0,0) tid=(127,0,0)
GPGPU-Sim PTX: 13300000 instructions simulated : ctaid=(21,0,0) tid=(127,0,0)
GPGPU-Sim PTX: 13400000 instructions simulated : ctaid=(39,0,0) tid=(31,0,0)
GPGPU-Sim uArch: cycles simulated: 24500  inst.: 13443488 (ipc=548.7) sim_rate=420109 (inst/sec) elapsed = 0:0:00:32 / Sun Mar  6 05:31:32 2016
GPGPU-Sim PTX: 13500000 instructions simulated : ctaid=(67,0,0) tid=(127,0,0)
GPGPU-Sim PTX: 13600000 instructions simulated : ctaid=(56,0,0) tid=(127,0,0)
GPGPU-Sim PTX: 13700000 instructions simulated : ctaid=(32,0,0) tid=(63,0,0)
GPGPU-Sim uArch: cycles simulated: 25000  inst.: 13732416 (ipc=549.3) sim_rate=416133 (inst/sec) elapsed = 0:0:00:33 / Sun Mar  6 05:31:33 2016
GPGPU-Sim PTX: 13800000 instructions simulated : ctaid=(0,0,0) tid=(95,0,0)
GPGPU-Sim PTX: 13900000 instructions simulated : ctaid=(22,0,0) tid=(31,0,0)
GPGPU-Sim PTX: 14000000 instructions simulated : ctaid=(47,0,0) tid=(63,0,0)
GPGPU-Sim PTX: 14100000 instructions simulated : ctaid=(66,0,0) tid=(31,0,0)
GPGPU-Sim PTX: 14200000 instructions simulated : ctaid=(27,0,0) tid=(63,0,0)
GPGPU-Sim PTX: 14300000 instructions simulated : ctaid=(3,0,0) tid=(95,0,0)
GPGPU-Sim uArch: cycles simulated: 26000  inst.: 14322720 (ipc=550.9) sim_rate=421256 (inst/sec) elapsed = 0:0:00:34 / Sun Mar  6 05:31:34 2016
GPGPU-Sim PTX: 14400000 instructions simulated : ctaid=(68,0,0) tid=(95,0,0)
GPGPU-Sim PTX: 14500000 instructions simulated : ctaid=(82,0,0) tid=(63,0,0)
GPGPU-Sim PTX: 14600000 instructions simulated : ctaid=(0,0,0) tid=(95,0,0)
GPGPU-Sim uArch: cycles simulated: 26500  inst.: 14615360 (ipc=551.5) sim_rate=417581 (inst/sec) elapsed = 0:0:00:35 / Sun Mar  6 05:31:35 2016
GPGPU-Sim PTX: 14700000 instructions simulated : ctaid=(115,0,0) tid=(31,0,0)
GPGPU-Sim PTX: 14800000 instructions simulated : ctaid=(106,0,0) tid=(127,0,0)
GPGPU-Sim PTX: 14900000 instructions simulated : ctaid=(30,0,0) tid=(127,0,0)
GPGPU-Sim PTX: 15000000 instructions simulated : ctaid=(45,0,0) tid=(63,0,0)
GPGPU-Sim PTX: 15100000 instructions simulated : ctaid=(29,0,0) tid=(63,0,0)
GPGPU-Sim PTX: 15200000 instructions simulated : ctaid=(37,0,0) tid=(63,0,0)
GPGPU-Sim uArch: cycles simulated: 27500  inst.: 15197568 (ipc=552.6) sim_rate=422154 (inst/sec) elapsed = 0:0:00:36 / Sun Mar  6 05:31:36 2016
GPGPU-Sim PTX: 15300000 instructions simulated : ctaid=(52,0,0) tid=(127,0,0)
GPGPU-Sim PTX: 15400000 instructions simulated : ctaid=(16,0,0) tid=(95,0,0)
GPGPU-Sim PTX: 15500000 instructions simulated : ctaid=(103,0,0) tid=(95,0,0)
GPGPU-Sim uArch: cycles simulated: 28000  inst.: 15480640 (ipc=552.9) sim_rate=418395 (inst/sec) elapsed = 0:0:00:37 / Sun Mar  6 05:31:37 2016
GPGPU-Sim PTX: 15600000 instructions simulated : ctaid=(87,0,0) tid=(95,0,0)
GPGPU-Sim PTX: 15700000 instructions simulated : ctaid=(88,0,0) tid=(127,0,0)
GPGPU-Sim uArch: cycles simulated: 28500  inst.: 15759552 (ipc=553.0) sim_rate=414725 (inst/sec) elapsed = 0:0:00:38 / Sun Mar  6 05:31:38 2016
GPGPU-Sim PTX: 15800000 instructions simulated : ctaid=(50,0,0) tid=(95,0,0)
GPGPU-Sim PTX: 15900000 instructions simulated : ctaid=(58,0,0) tid=(127,0,0)
GPGPU-Sim PTX: 16000000 instructions simulated : ctaid=(24,0,0) tid=(127,0,0)
GPGPU-Sim PTX: 16100000 instructions simulated : ctaid=(29,0,0) tid=(95,0,0)
GPGPU-Sim PTX: 16200000 instructions simulated : ctaid=(63,0,0) tid=(31,0,0)
GPGPU-Sim PTX: 16300000 instructions simulated : ctaid=(41,0,0) tid=(63,0,0)
GPGPU-Sim uArch: cycles simulated: 29500  inst.: 16357632 (ipc=554.5) sim_rate=419426 (inst/sec) elapsed = 0:0:00:39 / Sun Mar  6 05:31:39 2016
GPGPU-Sim PTX: 16400000 instructions simulated : ctaid=(73,0,0) tid=(31,0,0)
GPGPU-Sim PTX: 16500000 instructions simulated : ctaid=(39,0,0) tid=(127,0,0)
GPGPU-Sim PTX: 16600000 instructions simulated : ctaid=(78,0,0) tid=(63,0,0)
GPGPU-Sim uArch: cycles simulated: 30000  inst.: 16641152 (ipc=554.7) sim_rate=416028 (inst/sec) elapsed = 0:0:00:40 / Sun Mar  6 05:31:40 2016
GPGPU-Sim PTX: 16700000 instructions simulated : ctaid=(117,0,0) tid=(31,0,0)
GPGPU-Sim PTX: 16800000 instructions simulated : ctaid=(77,0,0) tid=(63,0,0)
GPGPU-Sim PTX: 16900000 instructions simulated : ctaid=(26,0,0) tid=(127,0,0)
GPGPU-Sim PTX: 17000000 instructions simulated : ctaid=(48,0,0) tid=(63,0,0)
GPGPU-Sim PTX: 17100000 instructions simulated : ctaid=(0,0,0) tid=(63,0,0)
GPGPU-Sim PTX: 17200000 instructions simulated : ctaid=(30,0,0) tid=(127,0,0)
GPGPU-Sim uArch: cycles simulated: 31000  inst.: 17221216 (ipc=555.5) sim_rate=420029 (inst/sec) elapsed = 0:0:00:41 / Sun Mar  6 05:31:41 2016
GPGPU-Sim PTX: 17300000 instructions simulated : ctaid=(1,0,0) tid=(95,0,0)
GPGPU-Sim PTX: 17400000 instructions simulated : ctaid=(71,0,0) tid=(95,0,0)
GPGPU-Sim PTX: 17500000 instructions simulated : ctaid=(47,0,0) tid=(95,0,0)
GPGPU-Sim uArch: cycles simulated: 31500  inst.: 17520640 (ipc=556.2) sim_rate=417158 (inst/sec) elapsed = 0:0:00:42 / Sun Mar  6 05:31:42 2016
GPGPU-Sim PTX: 17600000 instructions simulated : ctaid=(45,0,0) tid=(31,0,0)
GPGPU-Sim PTX: 17700000 instructions simulated : ctaid=(35,0,0) tid=(31,0,0)
GPGPU-Sim PTX: 17800000 instructions simulated : ctaid=(36,0,0) tid=(127,0,0)
GPGPU-Sim uArch: cycles simulated: 32000  inst.: 17818112 (ipc=556.8) sim_rate=414374 (inst/sec) elapsed = 0:0:00:43 / Sun Mar  6 05:31:43 2016
GPGPU-Sim PTX: 17900000 instructions simulated : ctaid=(11,0,0) tid=(63,0,0)
GPGPU-Sim PTX: 18000000 instructions simulated : ctaid=(42,0,0) tid=(95,0,0)
GPGPU-Sim PTX: 18100000 instructions simulated : ctaid=(57,0,0) tid=(63,0,0)
GPGPU-Sim uArch: cycles simulated: 32500  inst.: 18091040 (ipc=556.6) sim_rate=411160 (inst/sec) elapsed = 0:0:00:44 / Sun Mar  6 05:31:44 2016
GPGPU-Sim PTX: 18200000 instructions simulated : ctaid=(23,0,0) tid=(95,0,0)
GPGPU-Sim PTX: 18300000 instructions simulated : ctaid=(24,0,0) tid=(63,0,0)
GPGPU-Sim uArch: cycles simulated: 33000  inst.: 18359744 (ipc=556.4) sim_rate=407994 (inst/sec) elapsed = 0:0:00:45 / Sun Mar  6 05:31:45 2016
GPGPU-Sim PTX: 18400000 instructions simulated : ctaid=(18,0,0) tid=(95,0,0)
GPGPU-Sim PTX: 18500000 instructions simulated : ctaid=(0,0,0) tid=(127,0,0)
GPGPU-Sim PTX: 18600000 instructions simulated : ctaid=(61,0,0) tid=(63,0,0)
GPGPU-Sim uArch: cycles simulated: 33500  inst.: 18644864 (ipc=556.6) sim_rate=405323 (inst/sec) elapsed = 0:0:00:46 / Sun Mar  6 05:31:46 2016
GPGPU-Sim PTX: 18700000 instructions simulated : ctaid=(45,0,0) tid=(95,0,0)
GPGPU-Sim PTX: 18800000 instructions simulated : ctaid=(101,0,0) tid=(31,0,0)
GPGPU-Sim PTX: 18900000 instructions simulated : ctaid=(91,0,0) tid=(31,0,0)
GPGPU-Sim uArch: cycles simulated: 34000  inst.: 18946336 (ipc=557.2) sim_rate=403113 (inst/sec) elapsed = 0:0:00:47 / Sun Mar  6 05:31:47 2016
GPGPU-Sim PTX: 19000000 instructions simulated : ctaid=(1,0,0) tid=(95,0,0)
GPGPU-Sim PTX: 19100000 instructions simulated : ctaid=(48,0,0) tid=(127,0,0)
GPGPU-Sim PTX: 19200000 instructions simulated : ctaid=(38,0,0) tid=(95,0,0)
GPGPU-Sim uArch: cycles simulated: 34500  inst.: 19232320 (ipc=557.5) sim_rate=400673 (inst/sec) elapsed = 0:0:00:48 / Sun Mar  6 05:31:48 2016
GPGPU-Sim PTX: 19300000 instructions simulated : ctaid=(90,0,0) tid=(63,0,0)
GPGPU-Sim PTX: 19400000 instructions simulated : ctaid=(101,0,0) tid=(127,0,0)
GPGPU-Sim PTX: 19500000 instructions simulated : ctaid=(14,0,0) tid=(63,0,0)
GPGPU-Sim uArch: cycles simulated: 35000  inst.: 19533344 (ipc=558.1) sim_rate=398639 (inst/sec) elapsed = 0:0:00:49 / Sun Mar  6 05:31:49 2016
GPGPU-Sim PTX: 19600000 instructions simulated : ctaid=(51,0,0) tid=(31,0,0)
GPGPU-Sim PTX: 19700000 instructions simulated : ctaid=(82,0,0) tid=(95,0,0)
GPGPU-Sim PTX: 19800000 instructions simulated : ctaid=(60,0,0) tid=(95,0,0)
GPGPU-Sim uArch: cycles simulated: 35500  inst.: 19808416 (ipc=558.0) sim_rate=396168 (inst/sec) elapsed = 0:0:00:50 / Sun Mar  6 05:31:50 2016
GPGPU-Sim PTX: 19900000 instructions simulated : ctaid=(64,0,0) tid=(127,0,0)
GPGPU-Sim PTX: 20000000 instructions simulated : ctaid=(36,0,0) tid=(95,0,0)
GPGPU-Sim PTX: 20100000 instructions simulated : ctaid=(9,0,0) tid=(127,0,0)
GPGPU-Sim uArch: cycles simulated: 36000  inst.: 20101440 (ipc=558.4) sim_rate=394145 (inst/sec) elapsed = 0:0:00:51 / Sun Mar  6 05:31:51 2016
GPGPU-Sim PTX: 20200000 instructions simulated : ctaid=(52,0,0) tid=(127,0,0)
GPGPU-Sim PTX: 20300000 instructions simulated : ctaid=(16,0,0) tid=(31,0,0)
GPGPU-Sim PTX: 20400000 instructions simulated : ctaid=(73,0,0) tid=(95,0,0)
GPGPU-Sim uArch: cycles simulated: 36500  inst.: 20393440 (ipc=558.7) sim_rate=392181 (inst/sec) elapsed = 0:0:00:52 / Sun Mar  6 05:31:52 2016
GPGPU-Sim PTX: 20500000 instructions simulated : ctaid=(4,0,0) tid=(63,0,0)
GPGPU-Sim PTX: 20600000 instructions simulated : ctaid=(27,0,0) tid=(127,0,0)
GPGPU-Sim PTX: 20700000 instructions simulated : ctaid=(54,0,0) tid=(95,0,0)
GPGPU-Sim uArch: cycles simulated: 37000  inst.: 20675264 (ipc=558.8) sim_rate=390099 (inst/sec) elapsed = 0:0:00:53 / Sun Mar  6 05:31:53 2016
GPGPU-Sim PTX: 20800000 instructions simulated : ctaid=(29,0,0) tid=(63,0,0)
GPGPU-Sim PTX: 20900000 instructions simulated : ctaid=(21,0,0) tid=(63,0,0)
GPGPU-Sim uArch: cycles simulated: 37500  inst.: 20949568 (ipc=558.7) sim_rate=387954 (inst/sec) elapsed = 0:0:00:54 / Sun Mar  6 05:31:54 2016
GPGPU-Sim PTX: 21000000 instructions simulated : ctaid=(60,0,0) tid=(95,0,0)
GPGPU-Sim PTX: 21100000 instructions simulated : ctaid=(18,0,0) tid=(63,0,0)
GPGPU-Sim PTX: 21200000 instructions simulated : ctaid=(46,0,0) tid=(95,0,0)
GPGPU-Sim uArch: cycles simulated: 38000  inst.: 21221440 (ipc=558.5) sim_rate=385844 (inst/sec) elapsed = 0:0:00:55 / Sun Mar  6 05:31:55 2016
GPGPU-Sim PTX: 21300000 instructions simulated : ctaid=(85,0,0) tid=(63,0,0)
GPGPU-Sim PTX: 21400000 instructions simulated : ctaid=(62,0,0) tid=(127,0,0)
GPGPU-Sim PTX: 21500000 instructions simulated : ctaid=(103,0,0) tid=(31,0,0)
GPGPU-Sim uArch: cycles simulated: 38500  inst.: 21511424 (ipc=558.7) sim_rate=384132 (inst/sec) elapsed = 0:0:00:56 / Sun Mar  6 05:31:56 2016
GPGPU-Sim PTX: 21600000 instructions simulated : ctaid=(76,0,0) tid=(31,0,0)
GPGPU-Sim PTX: 21700000 instructions simulated : ctaid=(49,0,0) tid=(31,0,0)
GPGPU-Sim PTX: 21800000 instructions simulated : ctaid=(27,0,0) tid=(63,0,0)
GPGPU-Sim uArch: cycles simulated: 39000  inst.: 21817472 (ipc=559.4) sim_rate=376163 (inst/sec) elapsed = 0:0:00:58 / Sun Mar  6 05:31:58 2016
GPGPU-Sim PTX: 21900000 instructions simulated : ctaid=(49,0,0) tid=(31,0,0)
GPGPU-Sim PTX: 22000000 instructions simulated : ctaid=(14,0,0) tid=(95,0,0)
GPGPU-Sim PTX: 22100000 instructions simulated : ctaid=(56,0,0) tid=(95,0,0)
GPGPU-Sim uArch: cycles simulated: 39500  inst.: 22108992 (ipc=559.7) sim_rate=374728 (inst/sec) elapsed = 0:0:00:59 / Sun Mar  6 05:31:59 2016
GPGPU-Sim PTX: 22200000 instructions simulated : ctaid=(10,0,0) tid=(127,0,0)
GPGPU-Sim PTX: 22300000 instructions simulated : ctaid=(32,0,0) tid=(95,0,0)
GPGPU-Sim PTX: 22400000 instructions simulated : ctaid=(2,0,0) tid=(127,0,0)
GPGPU-Sim uArch: cycles simulated: 40000  inst.: 22408736 (ipc=560.2) sim_rate=373478 (inst/sec) elapsed = 0:0:01:00 / Sun Mar  6 05:32:00 2016
GPGPU-Sim PTX: 22500000 instructions simulated : ctaid=(66,0,0) tid=(63,0,0)
GPGPU-Sim PTX: 22600000 instructions simulated : ctaid=(1,0,0) tid=(63,0,0)
GPGPU-Sim PTX: 22700000 instructions simulated : ctaid=(4,0,0) tid=(127,0,0)
GPGPU-Sim uArch: cycles simulated: 40500  inst.: 22692288 (ipc=560.3) sim_rate=372004 (inst/sec) elapsed = 0:0:01:01 / Sun Mar  6 05:32:01 2016
GPGPU-Sim PTX: 22800000 instructions simulated : ctaid=(33,0,0) tid=(127,0,0)
GPGPU-Sim PTX: 22900000 instructions simulated : ctaid=(89,0,0) tid=(63,0,0)
GPGPU-Sim PTX: 23000000 instructions simulated : ctaid=(27,0,0) tid=(127,0,0)
GPGPU-Sim uArch: cycles simulated: 41000  inst.: 23008448 (ipc=561.2) sim_rate=371104 (inst/sec) elapsed = 0:0:01:02 / Sun Mar  6 05:32:02 2016
GPGPU-Sim PTX: 23100000 instructions simulated : ctaid=(56,0,0) tid=(31,0,0)
GPGPU-Sim PTX: 23200000 instructions simulated : ctaid=(31,0,0) tid=(95,0,0)
GPGPU-Sim PTX: 23300000 instructions simulated : ctaid=(66,0,0) tid=(127,0,0)
GPGPU-Sim uArch: cycles simulated: 41500  inst.: 23312800 (ipc=561.8) sim_rate=370044 (inst/sec) elapsed = 0:0:01:03 / Sun Mar  6 05:32:03 2016
GPGPU-Sim PTX: 23400000 instructions simulated : ctaid=(34,0,0) tid=(95,0,0)
GPGPU-Sim PTX: 23500000 instructions simulated : ctaid=(57,0,0) tid=(63,0,0)
GPGPU-Sim PTX: 23600000 instructions simulated : ctaid=(1,0,0) tid=(31,0,0)
GPGPU-Sim uArch: cycles simulated: 42000  inst.: 23626208 (ipc=562.5) sim_rate=369159 (inst/sec) elapsed = 0:0:01:04 / Sun Mar  6 05:32:04 2016
GPGPU-Sim PTX: 23700000 instructions simulated : ctaid=(53,0,0) tid=(95,0,0)
GPGPU-Sim PTX: 23800000 instructions simulated : ctaid=(112,0,0) tid=(31,0,0)
GPGPU-Sim PTX: 23900000 instructions simulated : ctaid=(33,0,0) tid=(31,0,0)
GPGPU-Sim uArch: cycles simulated: 42500  inst.: 23917376 (ipc=562.8) sim_rate=367959 (inst/sec) elapsed = 0:0:01:05 / Sun Mar  6 05:32:05 2016
GPGPU-Sim PTX: 24000000 instructions simulated : ctaid=(1,0,0) tid=(63,0,0)
GPGPU-Sim PTX: 24100000 instructions simulated : ctaid=(9,0,0) tid=(63,0,0)
GPGPU-Sim PTX: 24200000 instructions simulated : ctaid=(45,0,0) tid=(31,0,0)
GPGPU-Sim uArch: cycles simulated: 43000  inst.: 24206592 (ipc=562.9) sim_rate=366766 (inst/sec) elapsed = 0:0:01:06 / Sun Mar  6 05:32:06 2016
GPGPU-Sim PTX: 24300000 instructions simulated : ctaid=(101,0,0) tid=(95,0,0)
GPGPU-Sim PTX: 24400000 instructions simulated : ctaid=(52,0,0) tid=(95,0,0)
GPGPU-Sim PTX: 24500000 instructions simulated : ctaid=(11,0,0) tid=(63,0,0)
GPGPU-Sim uArch: cycles simulated: 43500  inst.: 24489728 (ipc=563.0) sim_rate=365518 (inst/sec) elapsed = 0:0:01:07 / Sun Mar  6 05:32:07 2016
GPGPU-Sim PTX: 24600000 instructions simulated : ctaid=(31,0,0) tid=(127,0,0)
GPGPU-Sim PTX: 24700000 instructions simulated : ctaid=(39,0,0) tid=(31,0,0)
GPGPU-Sim PTX: 24800000 instructions simulated : ctaid=(85,0,0) tid=(31,0,0)
GPGPU-Sim uArch: cycles simulated: 44000  inst.: 24772992 (ipc=563.0) sim_rate=364308 (inst/sec) elapsed = 0:0:01:08 / Sun Mar  6 05:32:08 2016
GPGPU-Sim PTX: 24900000 instructions simulated : ctaid=(37,0,0) tid=(63,0,0)
GPGPU-Sim PTX: 25000000 instructions simulated : ctaid=(28,0,0) tid=(95,0,0)
GPGPU-Sim PTX: 25100000 instructions simulated : ctaid=(61,0,0) tid=(31,0,0)
GPGPU-Sim uArch: cycles simulated: 44500  inst.: 25064288 (ipc=563.2) sim_rate=363250 (inst/sec) elapsed = 0:0:01:09 / Sun Mar  6 05:32:09 2016
GPGPU-Sim PTX: 25200000 instructions simulated : ctaid=(79,0,0) tid=(127,0,0)
GPGPU-Sim PTX: 25300000 instructions simulated : ctaid=(109,0,0) tid=(127,0,0)
GPGPU-Sim uArch: cycles simulated: 45000  inst.: 25329920 (ipc=562.9) sim_rate=361856 (inst/sec) elapsed = 0:0:01:10 / Sun Mar  6 05:32:10 2016
GPGPU-Sim PTX: 25400000 instructions simulated : ctaid=(46,0,0) tid=(63,0,0)
GPGPU-Sim PTX: 25500000 instructions simulated : ctaid=(3,0,0) tid=(31,0,0)
GPGPU-Sim PTX: 25600000 instructions simulated : ctaid=(95,0,0) tid=(63,0,0)
GPGPU-Sim uArch: cycles simulated: 45500  inst.: 25597504 (ipc=562.6) sim_rate=360528 (inst/sec) elapsed = 0:0:01:11 / Sun Mar  6 05:32:11 2016
GPGPU-Sim PTX: 25700000 instructions simulated : ctaid=(44,0,0) tid=(127,0,0)
GPGPU-Sim PTX: 25800000 instructions simulated : ctaid=(4,0,0) tid=(127,0,0)
GPGPU-Sim PTX: 25900000 instructions simulated : ctaid=(28,0,0) tid=(63,0,0)
GPGPU-Sim uArch: cycles simulated: 46000  inst.: 25893344 (ipc=562.9) sim_rate=359629 (inst/sec) elapsed = 0:0:01:12 / Sun Mar  6 05:32:12 2016
GPGPU-Sim PTX: 26000000 instructions simulated : ctaid=(79,0,0) tid=(63,0,0)
GPGPU-Sim PTX: 26100000 instructions simulated : ctaid=(55,0,0) tid=(63,0,0)
GPGPU-Sim PTX: 26200000 instructions simulated : ctaid=(48,0,0) tid=(31,0,0)
GPGPU-Sim uArch: cycles simulated: 46500  inst.: 26196096 (ipc=563.4) sim_rate=358850 (inst/sec) elapsed = 0:0:01:13 / Sun Mar  6 05:32:13 2016
GPGPU-Sim PTX: 26300000 instructions simulated : ctaid=(20,0,0) tid=(31,0,0)
GPGPU-Sim PTX: 26400000 instructions simulated : ctaid=(85,0,0) tid=(95,0,0)
GPGPU-Sim PTX: 26500000 instructions simulated : ctaid=(98,0,0) tid=(31,0,0)
GPGPU-Sim uArch: cycles simulated: 47000  inst.: 26497984 (ipc=563.8) sim_rate=358080 (inst/sec) elapsed = 0:0:01:14 / Sun Mar  6 05:32:14 2016
GPGPU-Sim PTX: 26600000 instructions simulated : ctaid=(101,0,0) tid=(95,0,0)
GPGPU-Sim PTX: 26700000 instructions simulated : ctaid=(0,0,0) tid=(63,0,0)
GPGPU-Sim PTX: 26800000 instructions simulated : ctaid=(73,0,0) tid=(63,0,0)
GPGPU-Sim uArch: cycles simulated: 47500  inst.: 26793952 (ipc=564.1) sim_rate=352552 (inst/sec) elapsed = 0:0:01:16 / Sun Mar  6 05:32:16 2016
GPGPU-Sim PTX: 26900000 instructions simulated : ctaid=(31,0,0) tid=(31,0,0)
GPGPU-Sim PTX: 27000000 instructions simulated : ctaid=(69,0,0) tid=(95,0,0)
GPGPU-Sim PTX: 27100000 instructions simulated : ctaid=(23,0,0) tid=(63,0,0)
GPGPU-Sim uArch: cycles simulated: 48000  inst.: 27079424 (ipc=564.2) sim_rate=351680 (inst/sec) elapsed = 0:0:01:17 / Sun Mar  6 05:32:17 2016
GPGPU-Sim PTX: 27200000 instructions simulated : ctaid=(43,0,0) tid=(63,0,0)
GPGPU-Sim PTX: 27300000 instructions simulated : ctaid=(97,0,0) tid=(63,0,0)
GPGPU-Sim PTX: 27400000 instructions simulated : ctaid=(7,0,0) tid=(127,0,0)
GPGPU-Sim uArch: cycles simulated: 48500  inst.: 27376000 (ipc=564.5) sim_rate=350974 (inst/sec) elapsed = 0:0:01:18 / Sun Mar  6 05:32:18 2016
GPGPU-Sim PTX: 27500000 instructions simulated : ctaid=(8,0,0) tid=(95,0,0)
GPGPU-Sim PTX: 27600000 instructions simulated : ctaid=(45,0,0) tid=(31,0,0)
GPGPU-Sim uArch: cycles simulated: 49000  inst.: 27656928 (ipc=564.4) sim_rate=350087 (inst/sec) elapsed = 0:0:01:19 / Sun Mar  6 05:32:19 2016
GPGPU-Sim PTX: 27700000 instructions simulated : ctaid=(7,0,0) tid=(31,0,0)
GPGPU-Sim PTX: 27800000 instructions simulated : ctaid=(42,0,0) tid=(127,0,0)
GPGPU-Sim PTX: 27900000 instructions simulated : ctaid=(65,0,0) tid=(95,0,0)
GPGPU-Sim uArch: cycles simulated: 49500  inst.: 27957952 (ipc=564.8) sim_rate=349474 (inst/sec) elapsed = 0:0:01:20 / Sun Mar  6 05:32:20 2016
GPGPU-Sim PTX: 28000000 instructions simulated : ctaid=(6,0,0) tid=(127,0,0)
GPGPU-Sim PTX: 28100000 instructions simulated : ctaid=(51,0,0) tid=(95,0,0)
GPGPU-Sim PTX: 28200000 instructions simulated : ctaid=(22,0,0) tid=(95,0,0)
GPGPU-Sim uArch: cycles simulated: 50000  inst.: 28241760 (ipc=564.8) sim_rate=348663 (inst/sec) elapsed = 0:0:01:21 / Sun Mar  6 05:32:21 2016
GPGPU-Sim PTX: 28300000 instructions simulated : ctaid=(92,0,0) tid=(63,0,0)
GPGPU-Sim PTX: 28400000 instructions simulated : ctaid=(11,0,0) tid=(95,0,0)
GPGPU-Sim PTX: 28500000 instructions simulated : ctaid=(41,0,0) tid=(31,0,0)
GPGPU-Sim uArch: cycles simulated: 50500  inst.: 28535008 (ipc=565.0) sim_rate=347987 (inst/sec) elapsed = 0:0:01:22 / Sun Mar  6 05:32:22 2016
GPGPU-Sim PTX: 28600000 instructions simulated : ctaid=(1,0,0) tid=(63,0,0)
GPGPU-Sim PTX: 28700000 instructions simulated : ctaid=(51,0,0) tid=(63,0,0)
GPGPU-Sim PTX: 28800000 instructions simulated : ctaid=(74,0,0) tid=(31,0,0)
GPGPU-Sim uArch: cycles simulated: 51000  inst.: 28834848 (ipc=565.4) sim_rate=347407 (inst/sec) elapsed = 0:0:01:23 / Sun Mar  6 05:32:23 2016
GPGPU-Sim PTX: 28900000 instructions simulated : ctaid=(17,0,0) tid=(63,0,0)
GPGPU-Sim PTX: 29000000 instructions simulated : ctaid=(12,0,0) tid=(31,0,0)
GPGPU-Sim PTX: 29100000 instructions simulated : ctaid=(9,0,0) tid=(127,0,0)
GPGPU-Sim uArch: cycles simulated: 51500  inst.: 29130048 (ipc=565.6) sim_rate=346786 (inst/sec) elapsed = 0:0:01:24 / Sun Mar  6 05:32:24 2016
GPGPU-Sim PTX: 29200000 instructions simulated : ctaid=(24,0,0) tid=(63,0,0)
GPGPU-Sim PTX: 29300000 instructions simulated : ctaid=(43,0,0) tid=(95,0,0)
GPGPU-Sim PTX: 29400000 instructions simulated : ctaid=(24,0,0) tid=(127,0,0)
GPGPU-Sim uArch: cycles simulated: 52000  inst.: 29417536 (ipc=565.7) sim_rate=346088 (inst/sec) elapsed = 0:0:01:25 / Sun Mar  6 05:32:25 2016
GPGPU-Sim PTX: 29500000 instructions simulated : ctaid=(59,0,0) tid=(95,0,0)
GPGPU-Sim PTX: 29600000 instructions simulated : ctaid=(55,0,0) tid=(31,0,0)
GPGPU-Sim PTX: 29700000 instructions simulated : ctaid=(32,0,0) tid=(31,0,0)
GPGPU-Sim uArch: cycles simulated: 52500  inst.: 29699360 (ipc=565.7) sim_rate=345341 (inst/sec) elapsed = 0:0:01:26 / Sun Mar  6 05:32:26 2016
GPGPU-Sim PTX: 29800000 instructions simulated : ctaid=(93,0,0) tid=(31,0,0)
GPGPU-Sim PTX: 29900000 instructions simulated : ctaid=(46,0,0) tid=(95,0,0)
GPGPU-Sim PTX: 30000000 instructions simulated : ctaid=(22,0,0) tid=(127,0,0)
GPGPU-Sim uArch: cycles simulated: 53000  inst.: 29998048 (ipc=566.0) sim_rate=344805 (inst/sec) elapsed = 0:0:01:27 / Sun Mar  6 05:32:27 2016
GPGPU-Sim PTX: 30100000 instructions simulated : ctaid=(34,0,0) tid=(31,0,0)
GPGPU-Sim PTX: 30200000 instructions simulated : ctaid=(18,0,0) tid=(127,0,0)
GPGPU-Sim PTX: 30300000 instructions simulated : ctaid=(20,0,0) tid=(127,0,0)
GPGPU-Sim uArch: cycles simulated: 53500  inst.: 30286848 (ipc=566.1) sim_rate=344168 (inst/sec) elapsed = 0:0:01:28 / Sun Mar  6 05:32:28 2016
GPGPU-Sim PTX: 30400000 instructions simulated : ctaid=(54,0,0) tid=(95,0,0)
GPGPU-Sim PTX: 30500000 instructions simulated : ctaid=(83,0,0) tid=(95,0,0)
GPGPU-Sim PTX: 30600000 instructions simulated : ctaid=(16,0,0) tid=(31,0,0)
GPGPU-Sim uArch: cycles simulated: 54000  inst.: 30565376 (ipc=566.0) sim_rate=343431 (inst/sec) elapsed = 0:0:01:29 / Sun Mar  6 05:32:29 2016
GPGPU-Sim PTX: 30700000 instructions simulated : ctaid=(1,0,0) tid=(31,0,0)
GPGPU-Sim PTX: 30800000 instructions simulated : ctaid=(78,0,0) tid=(31,0,0)
GPGPU-Sim uArch: cycles simulated: 54500  inst.: 30852160 (ipc=566.1) sim_rate=342801 (inst/sec) elapsed = 0:0:01:30 / Sun Mar  6 05:32:30 2016
GPGPU-Sim PTX: 30900000 instructions simulated : ctaid=(69,0,0) tid=(63,0,0)
GPGPU-Sim PTX: 31000000 instructions simulated : ctaid=(77,0,0) tid=(63,0,0)
GPGPU-Sim PTX: 31100000 instructions simulated : ctaid=(9,0,0) tid=(127,0,0)
GPGPU-Sim uArch: cycles simulated: 55000  inst.: 31132672 (ipc=566.0) sim_rate=342117 (inst/sec) elapsed = 0:0:01:31 / Sun Mar  6 05:32:31 2016
GPGPU-Sim PTX: 31200000 instructions simulated : ctaid=(42,0,0) tid=(31,0,0)
GPGPU-Sim PTX: 31300000 instructions simulated : ctaid=(80,0,0) tid=(95,0,0)
GPGPU-Sim PTX: 31400000 instructions simulated : ctaid=(48,0,0) tid=(127,0,0)
GPGPU-Sim uArch: cycles simulated: 55500  inst.: 31440096 (ipc=566.5) sim_rate=341740 (inst/sec) elapsed = 0:0:01:32 / Sun Mar  6 05:32:32 2016
GPGPU-Sim PTX: 31500000 instructions simulated : ctaid=(28,0,0) tid=(31,0,0)
GPGPU-Sim PTX: 31600000 instructions simulated : ctaid=(54,0,0) tid=(95,0,0)
GPGPU-Sim PTX: 31700000 instructions simulated : ctaid=(49,0,0) tid=(31,0,0)
GPGPU-Sim uArch: cycles simulated: 56000  inst.: 31734400 (ipc=566.7) sim_rate=341230 (inst/sec) elapsed = 0:0:01:33 / Sun Mar  6 05:32:33 2016
GPGPU-Sim PTX: 31800000 instructions simulated : ctaid=(69,0,0) tid=(127,0,0)
GPGPU-Sim PTX: 31900000 instructions simulated : ctaid=(38,0,0) tid=(127,0,0)
GPGPU-Sim PTX: 32000000 instructions simulated : ctaid=(46,0,0) tid=(95,0,0)
GPGPU-Sim uArch: cycles simulated: 56500  inst.: 32034432 (ipc=567.0) sim_rate=337204 (inst/sec) elapsed = 0:0:01:35 / Sun Mar  6 05:32:35 2016
GPGPU-Sim PTX: 32100000 instructions simulated : ctaid=(47,0,0) tid=(31,0,0)
GPGPU-Sim PTX: 32200000 instructions simulated : ctaid=(41,0,0) tid=(127,0,0)
GPGPU-Sim PTX: 32300000 instructions simulated : ctaid=(23,0,0) tid=(95,0,0)
GPGPU-Sim uArch: cycles simulated: 57000  inst.: 32312448 (ipc=566.9) sim_rate=336588 (inst/sec) elapsed = 0:0:01:36 / Sun Mar  6 05:32:36 2016
GPGPU-Sim PTX: 32400000 instructions simulated : ctaid=(72,0,0) tid=(95,0,0)
GPGPU-Sim PTX: 32500000 instructions simulated : ctaid=(51,0,0) tid=(31,0,0)
GPGPU-Sim PTX: 32600000 instructions simulated : ctaid=(27,0,0) tid=(127,0,0)
GPGPU-Sim uArch: cycles simulated: 57500  inst.: 32592608 (ipc=566.8) sim_rate=336006 (inst/sec) elapsed = 0:0:01:37 / Sun Mar  6 05:32:37 2016
GPGPU-Sim PTX: 32700000 instructions simulated : ctaid=(24,0,0) tid=(127,0,0)
GPGPU-Sim PTX: 32800000 instructions simulated : ctaid=(21,0,0) tid=(63,0,0)
GPGPU-Sim PTX: 32900000 instructions simulated : ctaid=(88,0,0) tid=(95,0,0)
GPGPU-Sim uArch: cycles simulated: 58000  inst.: 32874784 (ipc=566.8) sim_rate=335456 (inst/sec) elapsed = 0:0:01:38 / Sun Mar  6 05:32:38 2016
GPGPU-Sim PTX: 33000000 instructions simulated : ctaid=(32,0,0) tid=(95,0,0)
GPGPU-Sim PTX: 33100000 instructions simulated : ctaid=(102,0,0) tid=(127,0,0)
GPGPU-Sim PTX: 33200000 instructions simulated : ctaid=(88,0,0) tid=(31,0,0)
GPGPU-Sim PTX: 33300000 instructions simulated : ctaid=(63,0,0) tid=(95,0,0)
GPGPU-Sim PTX: 33400000 instructions simulated : ctaid=(27,0,0) tid=(95,0,0)
GPGPU-Sim uArch: cycles simulated: 59000  inst.: 33428352 (ipc=566.6) sim_rate=337660 (inst/sec) elapsed = 0:0:01:39 / Sun Mar  6 05:32:39 2016
GPGPU-Sim PTX: 33500000 instructions simulated : ctaid=(71,0,0) tid=(127,0,0)
GPGPU-Sim PTX: 33600000 instructions simulated : ctaid=(69,0,0) tid=(31,0,0)
GPGPU-Sim PTX: 33700000 instructions simulated : ctaid=(62,0,0) tid=(63,0,0)
GPGPU-Sim uArch: cycles simulated: 59500  inst.: 33670688 (ipc=565.9) sim_rate=336706 (inst/sec) elapsed = 0:0:01:40 / Sun Mar  6 05:32:40 2016
GPGPU-Sim PTX: 33800000 instructions simulated : ctaid=(72,0,0) tid=(31,0,0)
GPGPU-Sim PTX: 33900000 instructions simulated : ctaid=(18,0,0) tid=(63,0,0)
GPGPU-Sim PTX: 34000000 instructions simulated : ctaid=(42,0,0) tid=(63,0,0)
GPGPU-Sim PTX: 34100000 instructions simulated : ctaid=(81,0,0) tid=(31,0,0)
GPGPU-Sim PTX: 34200000 instructions simulated : ctaid=(115,0,0) tid=(95,0,0)
GPGPU-Sim uArch: cycles simulated: 60500  inst.: 34201248 (ipc=565.3) sim_rate=338626 (inst/sec) elapsed = 0:0:01:41 / Sun Mar  6 05:32:41 2016
GPGPU-Sim PTX: 34300000 instructions simulated : ctaid=(21,0,0) tid=(31,0,0)
GPGPU-Sim PTX: 34400000 instructions simulated : ctaid=(15,0,0) tid=(63,0,0)
GPGPU-Sim uArch: cycles simulated: 61000  inst.: 34457280 (ipc=564.9) sim_rate=337816 (inst/sec) elapsed = 0:0:01:42 / Sun Mar  6 05:32:42 2016
GPGPU-Sim PTX: 34500000 instructions simulated : ctaid=(99,0,0) tid=(95,0,0)
GPGPU-Sim PTX: 34600000 instructions simulated : ctaid=(85,0,0) tid=(31,0,0)
GPGPU-Sim PTX: 34700000 instructions simulated : ctaid=(115,0,0) tid=(31,0,0)
GPGPU-Sim uArch: cycles simulated: 61500  inst.: 34724096 (ipc=564.6) sim_rate=337127 (inst/sec) elapsed = 0:0:01:43 / Sun Mar  6 05:32:43 2016
GPGPU-Sim PTX: 34800000 instructions simulated : ctaid=(43,0,0) tid=(31,0,0)
GPGPU-Sim PTX: 34900000 instructions simulated : ctaid=(79,0,0) tid=(63,0,0)
GPGPU-Sim PTX: 35000000 instructions simulated : ctaid=(112,0,0) tid=(127,0,0)
GPGPU-Sim uArch: cycles simulated: 62000  inst.: 34978432 (ipc=564.2) sim_rate=336331 (inst/sec) elapsed = 0:0:01:44 / Sun Mar  6 05:32:44 2016
GPGPU-Sim uArch: Shader 3 finished CTA #0 (62147,0), 7 CTAs running
GPGPU-Sim uArch: core:  3, cta: 0 initialized @(62148,0)
GPGPU-Sim PTX: 35100000 instructions simulated : ctaid=(77,0,0) tid=(95,0,0)
GPGPU-Sim PTX: 35200000 instructions simulated : ctaid=(40,0,0) tid=(127,0,0)
GPGPU-Sim uArch: cycles simulated: 62500  inst.: 35224128 (ipc=563.6) sim_rate=335467 (inst/sec) elapsed = 0:0:01:45 / Sun Mar  6 05:32:45 2016
GPGPU-Sim PTX: 35300000 instructions simulated : ctaid=(45,0,0) tid=(31,0,0)
GPGPU-Sim uArch: Shader 5 finished CTA #0 (62704,0), 7 CTAs running
GPGPU-Sim uArch: core:  5, cta: 0 initialized @(62705,0)
GPGPU-Sim PTX: 35400000 instructions simulated : ctaid=(63,0,0) tid=(31,0,0)
GPGPU-Sim PTX: 35500000 instructions simulated : ctaid=(70,0,0) tid=(31,0,0)
GPGPU-Sim PTX: 35600000 instructions simulated : ctaid=(33,0,0) tid=(31,0,0)
GPGPU-Sim PTX: 35700000 instructions simulated : ctaid=(29,0,0) tid=(63,0,0)
GPGPU-Sim uArch: cycles simulated: 63500  inst.: 35706240 (ipc=562.3) sim_rate=336851 (inst/sec) elapsed = 0:0:01:46 / Sun Mar  6 05:32:46 2016
GPGPU-Sim PTX: 35800000 instructions simulated : ctaid=(62,0,0) tid=(63,0,0)
GPGPU-Sim uArch: Shader 0 finished CTA #0 (63610,0), 7 CTAs running
GPGPU-Sim uArch: core:  0, cta: 0 initialized @(63611,0)
GPGPU-Sim PTX: 35900000 instructions simulated : ctaid=(30,0,0) tid=(31,0,0)
GPGPU-Sim PTX: 36000000 instructions simulated : ctaid=(23,0,0) tid=(127,0,0)
GPGPU-Sim uArch: cycles simulated: 64000  inst.: 35962464 (ipc=561.9) sim_rate=336097 (inst/sec) elapsed = 0:0:01:47 / Sun Mar  6 05:32:47 2016
GPGPU-Sim PTX: 36100000 instructions simulated : ctaid=(17,0,0) tid=(63,0,0)
GPGPU-Sim PTX: 36200000 instructions simulated : ctaid=(73,0,0) tid=(95,0,0)
GPGPU-Sim uArch: Shader 7 finished CTA #0 (64476,0), 7 CTAs running
GPGPU-Sim uArch: core:  7, cta: 0 initialized @(64477,0)
GPGPU-Sim uArch: cycles simulated: 64500  inst.: 36219072 (ipc=561.5) sim_rate=335361 (inst/sec) elapsed = 0:0:01:48 / Sun Mar  6 05:32:48 2016
GPGPU-Sim PTX: 36300000 instructions simulated : ctaid=(96,0,0) tid=(127,0,0)
GPGPU-Sim PTX: 36400000 instructions simulated : ctaid=(81,0,0) tid=(31,0,0)
GPGPU-Sim PTX: 36500000 instructions simulated : ctaid=(79,0,0) tid=(31,0,0)
GPGPU-Sim uArch: cycles simulated: 65000  inst.: 36478400 (ipc=561.2) sim_rate=334664 (inst/sec) elapsed = 0:0:01:49 / Sun Mar  6 05:32:49 2016
GPGPU-Sim uArch: Shader 9 finished CTA #0 (65064,0), 7 CTAs running
GPGPU-Sim uArch: core:  9, cta: 0 initialized @(65065,0)
GPGPU-Sim uArch: Shader 5 finished CTA #1 (65138,0), 7 CTAs running
GPGPU-Sim uArch: core:  5, cta: 1 initialized @(65139,0)
GPGPU-Sim uArch: Shader 8 finished CTA #1 (65144,0), 7 CTAs running
GPGPU-Sim uArch: core:  8, cta: 1 initialized @(65145,0)
GPGPU-Sim PTX: 36600000 instructions simulated : ctaid=(61,0,0) tid=(127,0,0)
GPGPU-Sim PTX: 36700000 instructions simulated : ctaid=(86,0,0) tid=(95,0,0)
GPGPU-Sim uArch: cycles simulated: 65500  inst.: 36738560 (ipc=560.9) sim_rate=333986 (inst/sec) elapsed = 0:0:01:50 / Sun Mar  6 05:32:50 2016
GPGPU-Sim PTX: 36800000 instructions simulated : ctaid=(67,0,0) tid=(95,0,0)
GPGPU-Sim uArch: Shader 11 finished CTA #0 (65688,0), 7 CTAs running
GPGPU-Sim uArch: core: 11, cta: 0 initialized @(65689,0)
GPGPU-Sim PTX: 36900000 instructions simulated : ctaid=(73,0,0) tid=(63,0,0)
GPGPU-Sim uArch: Shader 8 finished CTA #0 (65751,0), 7 CTAs running
GPGPU-Sim uArch: core:  8, cta: 0 initialized @(65752,0)
GPGPU-Sim uArch: Shader 14 finished CTA #1 (65879,0), 7 CTAs running
GPGPU-Sim uArch: core: 14, cta: 1 initialized @(65880,0)
GPGPU-Sim PTX: 37000000 instructions simulated : ctaid=(16,0,0) tid=(63,0,0)
GPGPU-Sim uArch: cycles simulated: 66000  inst.: 36990336 (ipc=560.5) sim_rate=333246 (inst/sec) elapsed = 0:0:01:51 / Sun Mar  6 05:32:51 2016
GPGPU-Sim uArch: Shader 14 finished CTA #0 (66008,0), 7 CTAs running
GPGPU-Sim uArch: core: 14, cta: 0 initialized @(66009,0)
GPGPU-Sim PTX: 37100000 instructions simulated : ctaid=(88,0,0) tid=(95,0,0)
GPGPU-Sim uArch: Shader 4 finished CTA #0 (66289,0), 7 CTAs running
GPGPU-Sim uArch: core:  4, cta: 0 initialized @(66290,0)
GPGPU-Sim PTX: 37200000 instructions simulated : ctaid=(101,0,0) tid=(63,0,0)
GPGPU-Sim uArch: cycles simulated: 66500  inst.: 37245472 (ipc=560.1) sim_rate=332548 (inst/sec) elapsed = 0:0:01:52 / Sun Mar  6 05:32:52 2016
GPGPU-Sim PTX: 37300000 instructions simulated : ctaid=(77,0,0) tid=(95,0,0)
GPGPU-Sim uArch: Shader 7 finished CTA #1 (66618,0), 7 CTAs running
GPGPU-Sim uArch: core:  7, cta: 1 initialized @(66619,0)
GPGPU-Sim PTX: 37400000 instructions simulated : ctaid=(56,0,0) tid=(63,0,0)
GPGPU-Sim uArch: Shader 12 finished CTA #1 (66748,0), 7 CTAs running
GPGPU-Sim uArch: core: 12, cta: 1 initialized @(66749,0)
GPGPU-Sim uArch: Shader 13 finished CTA #0 (66776,0), 7 CTAs running
GPGPU-Sim uArch: core: 13, cta: 0 initialized @(66777,0)
GPGPU-Sim PTX: 37500000 instructions simulated : ctaid=(42,0,0) tid=(127,0,0)
GPGPU-Sim uArch: Shader 10 finished CTA #0 (66927,0), 7 CTAs running
GPGPU-Sim uArch: core: 10, cta: 0 initialized @(66928,0)
GPGPU-Sim uArch: Shader 2 finished CTA #1 (66936,0), 7 CTAs running
GPGPU-Sim uArch: core:  2, cta: 1 initialized @(66937,0)
GPGPU-Sim uArch: cycles simulated: 67000  inst.: 37511488 (ipc=559.9) sim_rate=331960 (inst/sec) elapsed = 0:0:01:53 / Sun Mar  6 05:32:53 2016
GPGPU-Sim PTX: 37600000 instructions simulated : ctaid=(77,0,0) tid=(31,0,0)
GPGPU-Sim uArch: Shader 12 finished CTA #0 (67113,0), 7 CTAs running
GPGPU-Sim uArch: core: 12, cta: 0 initialized @(67114,0)
GPGPU-Sim PTX: 37700000 instructions simulated : ctaid=(95,0,0) tid=(31,0,0)
GPGPU-Sim PTX: 37800000 instructions simulated : ctaid=(108,0,0) tid=(31,0,0)
GPGPU-Sim uArch: Shader 6 finished CTA #1 (67460,0), 7 CTAs running
GPGPU-Sim uArch: core:  6, cta: 1 initialized @(67461,0)
GPGPU-Sim uArch: cycles simulated: 67500  inst.: 37788128 (ipc=559.8) sim_rate=331474 (inst/sec) elapsed = 0:0:01:54 / Sun Mar  6 05:32:54 2016
GPGPU-Sim PTX: 37900000 instructions simulated : ctaid=(88,0,0) tid=(31,0,0)
GPGPU-Sim uArch: Shader 8 finished CTA #2 (67640,0), 7 CTAs running
GPGPU-Sim uArch: core:  8, cta: 2 initialized @(67641,0)
GPGPU-Sim uArch: Shader 2 finished CTA #0 (67726,0), 7 CTAs running
GPGPU-Sim uArch: core:  2, cta: 0 initialized @(67727,0)
GPGPU-Sim uArch: Shader 1 finished CTA #1 (67785,0), 7 CTAs running
GPGPU-Sim uArch: core:  1, cta: 1 initialized @(67786,0)
GPGPU-Sim PTX: 38000000 instructions simulated : ctaid=(51,0,0) tid=(63,0,0)
GPGPU-Sim PTX: 38100000 instructions simulated : ctaid=(81,0,0) tid=(63,0,0)
GPGPU-Sim uArch: cycles simulated: 68000  inst.: 38080320 (ipc=560.0) sim_rate=331133 (inst/sec) elapsed = 0:0:01:55 / Sun Mar  6 05:32:55 2016
GPGPU-Sim PTX: 38200000 instructions simulated : ctaid=(126,0,0) tid=(63,0,0)
GPGPU-Sim uArch: Shader 5 finished CTA #2 (68243,0), 7 CTAs running
GPGPU-Sim uArch: core:  5, cta: 2 initialized @(68244,0)
GPGPU-Sim PTX: 38300000 instructions simulated : ctaid=(57,0,0) tid=(63,0,0)
GPGPU-Sim uArch: Shader 6 finished CTA #0 (68407,0), 7 CTAs running
GPGPU-Sim uArch: core:  6, cta: 0 initialized @(68408,0)
GPGPU-Sim PTX: 38400000 instructions simulated : ctaid=(78,0,0) tid=(31,0,0)
GPGPU-Sim uArch: Shader 14 finished CTA #2 (68533,0), 7 CTAs running
GPGPU-Sim uArch: core: 14, cta: 2 initialized @(68534,0)
GPGPU-Sim PTX: 38500000 instructions simulated : ctaid=(54,0,0) tid=(63,0,0)
GPGPU-Sim uArch: Shader 13 finished CTA #1 (68661,0), 7 CTAs running
GPGPU-Sim uArch: core: 13, cta: 1 initialized @(68662,0)
GPGPU-Sim uArch: Shader 1 finished CTA #0 (68692,0), 7 CTAs running
GPGPU-Sim uArch: core:  1, cta: 0 initialized @(68693,0)
GPGPU-Sim PTX: 38600000 instructions simulated : ctaid=(92,0,0) tid=(95,0,0)
GPGPU-Sim PTX: 38700000 instructions simulated : ctaid=(61,0,0) tid=(63,0,0)
GPGPU-Sim uArch: cycles simulated: 69000  inst.: 38691424 (ipc=560.7) sim_rate=333546 (inst/sec) elapsed = 0:0:01:56 / Sun Mar  6 05:32:56 2016
GPGPU-Sim PTX: 38800000 instructions simulated : ctaid=(36,0,0) tid=(127,0,0)
GPGPU-Sim uArch: Shader 3 finished CTA #1 (69119,0), 7 CTAs running
GPGPU-Sim uArch: core:  3, cta: 1 initialized @(69120,0)
GPGPU-Sim uArch: Shader 9 finished CTA #1 (69193,0), 7 CTAs running
GPGPU-Sim uArch: core:  9, cta: 1 initialized @(69194,0)
GPGPU-Sim PTX: 38900000 instructions simulated : ctaid=(46,0,0) tid=(63,0,0)
GPGPU-Sim uArch: Shader 4 finished CTA #1 (69311,0), 7 CTAs running
GPGPU-Sim uArch: core:  4, cta: 1 initialized @(69312,0)
GPGPU-Sim PTX: 39000000 instructions simulated : ctaid=(114,0,0) tid=(31,0,0)
GPGPU-Sim uArch: cycles simulated: 69500  inst.: 39008192 (ipc=561.3) sim_rate=333403 (inst/sec) elapsed = 0:0:01:57 / Sun Mar  6 05:32:57 2016
GPGPU-Sim uArch: Shader 3 finished CTA #2 (69543,0), 7 CTAs running
GPGPU-Sim uArch: core:  3, cta: 2 initialized @(69544,0)
GPGPU-Sim uArch: Shader 0 finished CTA #1 (69545,0), 7 CTAs running
GPGPU-Sim uArch: core:  0, cta: 1 initialized @(69546,0)
GPGPU-Sim PTX: 39100000 instructions simulated : ctaid=(129,0,0) tid=(63,0,0)
GPGPU-Sim uArch: Shader 7 finished CTA #2 (69687,0), 7 CTAs running
GPGPU-Sim uArch: core:  7, cta: 2 initialized @(69688,0)
GPGPU-Sim PTX: 39200000 instructions simulated : ctaid=(64,0,0) tid=(127,0,0)
GPGPU-Sim uArch: Shader 11 finished CTA #1 (69866,0), 7 CTAs running
GPGPU-Sim uArch: core: 11, cta: 1 initialized @(69867,0)
GPGPU-Sim PTX: 39300000 instructions simulated : ctaid=(64,0,0) tid=(127,0,0)
GPGPU-Sim uArch: cycles simulated: 70000  inst.: 39310304 (ipc=561.6) sim_rate=333138 (inst/sec) elapsed = 0:0:01:58 / Sun Mar  6 05:32:58 2016
GPGPU-Sim uArch: Shader 2 finished CTA #2 (70041,0), 7 CTAs running
GPGPU-Sim uArch: core:  2, cta: 2 initialized @(70042,0)
GPGPU-Sim PTX: 39400000 instructions simulated : ctaid=(69,0,0) tid=(127,0,0)
GPGPU-Sim PTX: 39500000 instructions simulated : ctaid=(140,0,0) tid=(31,0,0)
GPGPU-Sim PTX: 39600000 instructions simulated : ctaid=(59,0,0) tid=(31,0,0)
GPGPU-Sim uArch: cycles simulated: 70500  inst.: 39613024 (ipc=561.9) sim_rate=332882 (inst/sec) elapsed = 0:0:01:59 / Sun Mar  6 05:32:59 2016
GPGPU-Sim PTX: 39700000 instructions simulated : ctaid=(81,0,0) tid=(31,0,0)
GPGPU-Sim uArch: Shader 1 finished CTA #2 (70576,0), 7 CTAs running
GPGPU-Sim uArch: core:  1, cta: 2 initialized @(70577,0)
GPGPU-Sim PTX: 39800000 instructions simulated : ctaid=(119,0,0) tid=(31,0,0)
GPGPU-Sim uArch: Shader 10 finished CTA #1 (70744,0), 7 CTAs running
GPGPU-Sim uArch: core: 10, cta: 1 initialized @(70745,0)
GPGPU-Sim PTX: 39900000 instructions simulated : ctaid=(88,0,0) tid=(31,0,0)
GPGPU-Sim uArch: cycles simulated: 71000  inst.: 39907296 (ipc=562.1) sim_rate=332560 (inst/sec) elapsed = 0:0:02:00 / Sun Mar  6 05:33:00 2016
GPGPU-Sim PTX: 40000000 instructions simulated : ctaid=(62,0,0) tid=(127,0,0)
GPGPU-Sim uArch: Shader 10 finished CTA #2 (71131,0), 7 CTAs running
GPGPU-Sim uArch: core: 10, cta: 2 initialized @(71132,0)
GPGPU-Sim PTX: 40100000 instructions simulated : ctaid=(125,0,0) tid=(127,0,0)
GPGPU-Sim uArch: Shader 4 finished CTA #2 (71362,0), 7 CTAs running
GPGPU-Sim uArch: core:  4, cta: 2 initialized @(71363,0)
GPGPU-Sim PTX: 40200000 instructions simulated : ctaid=(100,0,0) tid=(127,0,0)
GPGPU-Sim uArch: cycles simulated: 71500  inst.: 40206400 (ipc=562.3) sim_rate=332284 (inst/sec) elapsed = 0:0:02:01 / Sun Mar  6 05:33:01 2016
GPGPU-Sim uArch: Shader 12 finished CTA #2 (71546,0), 7 CTAs running
GPGPU-Sim uArch: core: 12, cta: 2 initialized @(71547,0)
[...]
maxmflatency = 2087 
averagemflatency = 694 
max_icnt2mem_latency = 949 
max_icnt2sh_latency = 348950 
mrq_lat_table:122543 	3795 	5941 	14225 	44034 	70506 	93777 	65786 	16220 	676 	6 	0 	0 	0 	0 	0 	0 	0 	0 	0 	0 	0 	0 	0 	0 	0 	0 	0 	0 	0 	0 	0 	
dq_lat_table:0 	0 	0 	0 	0 	0 	0 	0 	0 	0 	0 	0 	0 	0 	0 	0 	0 	0 	0 	0 	0 	0 	0 	0 	0 	0 	0 	0 	0 	0 	0 	0 	
mf_lat_table:0 	0 	0 	0 	0 	0 	0 	91 	49551 	248476 	14396 	1 	0 	0 	0 	0 	0 	0 	0 	0 	0 	0 	0 	0 	0 	0 	0 	0 	0 	0 	0 	0 	
icnt2mem_lat_table:0 	0 	0 	22935 	13048 	25832 	81335 	78703 	87208 	3574 	0 	0 	0 	0 	0 	0 	0 	0 	0 	0 	0 	0 	0 	0 	
icnt2sh_lat_table:0 	0 	0 	129619 	55413 	2473 	10 	0 	0 	0 	0 	114 	1485 	3145 	6202 	12013 	24484 	49344 	28213 	0 	0 	0 	0 	0 	
mf_lat_pw_table:0 	0 	0 	0 	0 	0 	0 	0 	58 	637 	0 	0 	0 	0 	0 	0 	0 	0 	0 	0 	0 	0 	0 	0 	0 	0 	0 	0 	0 	0 	0 	0 	
maximum concurrent accesses to same row:
dram[0]:        30        29        22        24        24        22        38        38        22        22        28        30        32        30        24        14 
dram[1]:        28        29        18        16        26        20        34        32        12        14        28        28        31        30        16        16 
dram[2]:        31        30        14        14        26        24        34        34        20        28        28        32        32        30        18        28 
dram[3]:        30        29        20        16        20        24        32        32        16        20        30        28        32        30        20        20 
dram[4]:        32        31        16        22        28        24        36        36        14        20        26        38        34        30        26        20 
dram[5]:        29        30        14        14        24        24        32        32        12        14        28        32        44        30        12        20 
maximum service time to same row:
dram[0]:      3460      3416      4297      3957      3831      2414      3060      2770      6068      4559      3100      3049      3047      3112      5884      4792 
dram[1]:      2490      3354      3581      4055      3854      2430      2456      2499      5430      4379      2457      2531      2902      3002      5950      4546 
dram[2]:      3430      3833      4442      4223      2668      2422      3418      3830      4168      5407      3436      4816      3378      3825      4575      4597 
dram[3]:      2972      3295      4537      3739      3083      2425      2957      2662      4674      4674      2969      2499      3119      2979      4579      4554 
dram[4]:      3429      4089      4632      4827      4022      2416      2859      4084      4722      4976      3255      2641      3113      4072      4753      4969 
dram[5]:      3346      3200      3746      3631      4604      2423      2467      2454      5005      4398      3035      2552      3002      3619      4629      4657 
average row accesses per activate:
dram[0]:  1.575894  1.583508  1.563410  1.563410  1.588503  1.581298  1.610134  1.601120  1.578475  1.556463  1.586135  1.580111  1.591652  1.586135  1.589441  1.573590 
dram[1]:  1.563060  1.556319  1.531568  1.537308  1.565999  1.556853  1.584488  1.581749  1.529923  1.535571  1.574673  1.570350  1.555933  1.567123  1.544902  1.556463 
dram[2]:  1.576642  1.576348  1.575969  1.543620  1.577445  1.573907  1.591652  1.591652  1.562842  1.554348  1.572509  1.573590  1.577931  1.571429  1.574131  1.553820 
dram[3]:  1.539192  1.549932  1.542037  1.528973  1.535751  1.558227  1.562842  1.571429  1.540741  1.529923  1.553293  1.553293  1.556992  1.564444  1.548038  1.563375 
dram[4]:  1.583101  1.574705  1.540457  1.558549  1.567082  1.598309  1.594425  1.605614  1.552765  1.558583  1.562308  1.594425  1.571429  1.584488  1.577387  1.582843 
dram[5]:  1.545331  1.554184  1.525355  1.523295  1.552587  1.549710  1.574131  1.568197  1.531459  1.532485  1.563910  1.566051  1.553293  1.542819  1.558052  1.550661 
average row locality = 437509/279734 = 1.564018
number of total memory accesses made:
dram[0]:         0         0         0         0         0         0         0         0         0         0         0         0         0         0         0         0 
dram[1]:         0         0         0         0         0         0         0         0         0         0         0         0         0         0         0         0 
dram[2]:         0         0         0         0         0         0         0         0         0         0         0         0         0         0         0         0 
dram[3]:         0         0         0         0         0         0         0         0         0         0         0         0         0         0         0         0 
dram[4]:         0         0         0         0         0         0         0         0         0         0         0         0         0         0         0         0 
dram[5]:         0         0         0         0         0         0         0         0         0         0         0         0         0         0         0         0 
total accesses: 0
min_bank_accesses = 0!
min_chip_accesses = 0!
number of total read accesses:
dram[0]:      3251      3246      3232      3232      3242      3242      3264      3264      3264      3264      3264      3264      3264      3264      3264      3264 
dram[1]:      3250      3246      3232      3232      3242      3242      3264      3264      3264      3264      3264      3264      3264      3264      3264      3264 
dram[2]:      3250      3246      3232      3232      3242      3244      3264      3264      3264      3264      3264      3264      3264      3264      3264      3264 
dram[3]:      3250      3246      3232      3232      3242      3244      3264      3264      3264      3264      3264      3264      3264      3264      3264      3264 
dram[4]:      3248      3246      3232      3232      3242      3244      3264      3264      3264      3264      3264      3264      3264      3264      3264      3264 
dram[5]:      3248      3246      3232      3232      3242      3244      3264      3264      3264      3264      3264      3264      3264      3264      3264      3264 
total reads: 312509
bank skew: 3264/3232 = 1.01
chip skew: 52086/52084 = 1.00
number of total write accesses:
dram[0]:      1286      1286      1280      1280      1290      1290      1312      1312      1312      1312      1312      1312      1312      1312      1312      1312 
dram[1]:      1286      1286      1280      1280      1290      1290      1312      1312      1312      1312      1312      1312      1312      1312      1312      1312 
dram[2]:      1286      1286      1280      1280      1290      1292      1312      1312      1312      1312      1312      1312      1312      1312      1312      1312 
dram[3]:      1286      1286      1280      1280      1290      1292      1312      1312      1312      1312      1312      1312      1312      1312      1312      1312 
dram[4]:      1286      1286      1280      1280      1290      1292      1312      1312      1312      1312      1312      1312      1312      1312      1312      1312 
dram[5]:      1286      1286      1280      1280      1290      1292      1312      1312      1312      1312      1312      1312      1312      1312      1312      1312 
total reads: 125000
bank skew: 1312/1280 = 1.02
chip skew: 20834/20832 = 1.00
average mf latency per bank:
dram[0]:        471       470       487       477       487       485       493       490       479       476       479       470       482       485       501       490
dram[1]:        448       454       454       460       458       469       459       471       445       459       449       458       454       465       466       480
dram[2]:        537       535       545       540       548       545       544       551       538       540       538       539       545       546       564       559
dram[3]:        465       473       470       478       481       488       481       496       468       482       473       474       478       484       491       504
dram[4]:        494       502       497       514       502       520       508       523       499       506       499       510       503       515       520       532
dram[5]:        486       483       501       490       500       493       501       501       491       488       488       486       504       496       514       510
maximum mf latency per bank:
dram[0]:       1619      1838      1702      1515      1420      1475      1614      1632      1644      1615      1753      1420      1713      1761      1546      1458
dram[1]:       1376      1401      1355      1595      1388      1506      1330      1435      1563      1691      1287      1540      1309      1320      1380      1531
dram[2]:       1913      1519      1790      1509      1766      1519      1594      1458      1877      1684      1556      1730      2087      1681      1781      1934
dram[3]:       1210      1381      1207      1412      1349      1626      1314      1367      1334      1334      1359      1335      1283      1509      1361      1431
dram[4]:       1385      1384      1282      1585      1701      1709      1752      1716      1355      1681      1473      1643      1422      1723      1441      1569
dram[5]:       1488      1502      1555      1352      1717      1372      1539      1388      1413      1346      1391      1280      1571      1480      1460      1688

Number of Memory Banks Accessed per Memory Operation per Warp (from 0):
0	0	0	0	0	0	0	0	0	0	0	0	0	0	0	0	0	0	0	0	0	0	0	0	0	0	0	0	0	0	0	0	0	0	0	0	0	0	0	0	0	0	0	0	0	0	0	0	0	0	0	0	0	0	0	0	0	0	0	0	0	0	0	0	0	0	0	0	0	0	0	0	0	0	0	0	0	0	0	0	0	0	0	0	0	0	0	0	0	0	0	0	0	0	0	0	
Average # of Memory Banks Accessed per Memory Operation per Warp=-nan

position of mrq chosen
0	0	0	0	0	0	0	0	0	0	0	0	0	0	0	0	

average position of mrq chosen = -nan
Memory Partition 0: 
Cache L2_bank_000:
MSHR contents

Cache L2_bank_001:
MSHR contents

In Dram Latency Queue (total = 0): 
DRAM[0]: 16 bks, busW=4 BL=8 CL=12, tRRD=2 tCCD=6, tRCD=12 tRAS=28 tRP=12 tRC=40
n_cmd=460614 n_nop=222598 n_act=46099 n_pre=46083 n_req=72917 n_rd=104170 n_write=41664 bw_util=0.6332
n_activity=445575 dram_eff=0.6546
bk0: 6502a 225948i bk1: 6492a 218956i bk2: 6464a 206551i bk3: 6464a 206923i bk4: 6484a 196932i bk5: 6484a 190417i bk6: 6528a 184923i bk7: 6528a 174105i bk8: 6528a 220335i bk9: 6528a 212888i bk10: 6528a 208912i bk11: 6528a 205806i bk12: 6528a 194707i bk13: 6528a 189890i bk14: 6528a 177245i bk15: 6528a 171587i 
dram_util_bins: 0 0 0 0 0 0 0 0 0 0
dram_eff_bins: 0 0 0 0 0 0 0 0 0 0
mrqq: max=16 avg=14.4925
Memory Partition 1: 
Cache L2_bank_002:
MSHR contents

Cache L2_bank_003:
MSHR contents

In Dram Latency Queue (total = 0): 
DRAM[1]: 16 bks, busW=4 BL=8 CL=12, tRRD=2 tCCD=6, tRCD=12 tRAS=28 tRP=12 tRC=40
n_cmd=460614 n_nop=221128 n_act=46835 n_pre=46819 n_req=72916 n_rd=104168 n_write=41664 bw_util=0.6332
n_activity=448565 dram_eff=0.6502
bk0: 6500a 222479i bk1: 6492a 218799i bk2: 6464a 211128i bk3: 6464a 206690i bk4: 6484a 200726i bk5: 6484a 193645i bk6: 6528a 187628i bk7: 6528a 176628i bk8: 6528a 217353i bk9: 6528a 208867i bk10: 6528a 208684i bk11: 6528a 201773i bk12: 6528a 195815i bk13: 6528a 189535i bk14: 6528a 179220i bk15: 6528a 170204i 
dram_util_bins: 0 0 0 0 0 0 0 0 0 0
dram_eff_bins: 0 0 0 0 0 0 0 0 0 0
mrqq: max=16 avg=14.1706
Memory Partition 2: 
Cache L2_bank_004:
MSHR contents

Cache L2_bank_005:
MSHR contents

In Dram Latency Queue (total = 0): 
DRAM[2]: 16 bks, busW=4 BL=8 CL=12, tRRD=2 tCCD=6, tRCD=12 tRAS=28 tRP=12 tRC=40
n_cmd=460614 n_nop=221996 n_act=46397 n_pre=46381 n_req=72920 n_rd=104172 n_write=41668 bw_util=0.6332
n_activity=445317 dram_eff=0.655
bk0: 6500a 220959i bk1: 6492a 215729i bk2: 6464a 209624i bk3: 6464a 203768i bk4: 6484a 198367i bk5: 6488a 193920i bk6: 6528a 185089i bk7: 6528a 172193i bk8: 6528a 219562i bk9: 6528a 210140i bk10: 6528a 207385i bk11: 6528a 205810i bk12: 6528a 194533i bk13: 6528a 190299i bk14: 6528a 179513i bk15: 6528a 169378i 
dram_util_bins: 0 0 0 0 0 0 0 0 0 0
dram_eff_bins: 0 0 0 0 0 0 0 0 0 0
mrqq: max=16 avg=14.5869
Memory Partition 3: 
Cache L2_bank_006:
MSHR contents

Cache L2_bank_007:
MSHR contents
MSHR: tag=0x80f21180, atomic=0 1 entries : 0x7feb650e1ec0 :  mf: uid=7759590, sid09:w03, part=3, addr=0x80f21180, load , size=128, unknown  status = IN_PARTITION_DRAM (348947), 

In Dram Latency Queue (total = 0): 
DRAM[3]: 16 bks, busW=4 BL=8 CL=12, tRRD=2 tCCD=6, tRCD=12 tRAS=28 tRP=12 tRC=40
n_cmd=460614 n_nop=220690 n_act=47050 n_pre=47034 n_req=72920 n_rd=104172 n_write=41668 bw_util=0.6332
n_activity=448130 dram_eff=0.6509
bk0: 6500a 221431i bk1: 6492a 216498i bk2: 6464a 213182i bk3: 6464a 203705i bk4: 6484a 198154i bk5: 6488a 193991i bk6: 6528a 182491i bk7: 6528a 174133i bk8: 6528a 217026i bk9: 6528a 209967i bk10: 6528a 207535i bk11: 6528a 200316i bk12: 6528a 197375i bk13: 6528a 187015i bk14: 6528a 179806i bk15: 6528a 167595i 
dram_util_bins: 0 0 0 0 0 0 0 0 0 0
dram_eff_bins: 0 0 0 0 0 0 0 0 0 0
mrqq: max=16 avg=14.3861
Memory Partition 4: 
Cache L2_bank_008:
MSHR contents

Cache L2_bank_009:
MSHR contents

In Dram Latency Queue (total = 0): 
DRAM[4]: 16 bks, busW=4 BL=8 CL=12, tRRD=2 tCCD=6, tRCD=12 tRAS=28 tRP=12 tRC=40
n_cmd=460614 n_nop=222214 n_act=46290 n_pre=46274 n_req=72918 n_rd=104168 n_write=41668 bw_util=0.6332
n_activity=444991 dram_eff=0.6555
bk0: 6496a 226695i bk1: 6492a 219582i bk2: 6464a 211206i bk3: 6464a 204951i bk4: 6484a 200965i bk5: 6488a 192455i bk6: 6528a 181245i bk7: 6528a 176807i bk8: 6528a 218898i bk9: 6528a 211018i bk10: 6528a 208424i bk11: 6528a 204225i bk12: 6528a 197307i bk13: 6528a 187194i bk14: 6528a 180105i bk15: 6528a 171282i 
dram_util_bins: 0 0 0 0 0 0 0 0 0 0
dram_eff_bins: 0 0 0 0 0 0 0 0 0 0
mrqq: max=16 avg=14.5445
Memory Partition 5: 
Cache L2_bank_010:
MSHR contents

Cache L2_bank_011:
MSHR contents

In Dram Latency Queue (total = 0): 
DRAM[5]: 16 bks, busW=4 BL=8 CL=12, tRRD=2 tCCD=6, tRCD=12 tRAS=28 tRP=12 tRC=40
n_cmd=460614 n_nop=220668 n_act=47063 n_pre=47047 n_req=72918 n_rd=104168 n_write=41668 bw_util=0.6332
n_activity=447613 dram_eff=0.6516
bk0: 6496a 221708i bk1: 6492a 218829i bk2: 6464a 211648i bk3: 6464a 205717i bk4: 6484a 200237i bk5: 6488a 192037i bk6: 6528a 186158i bk7: 6528a 179922i bk8: 6528a 217542i bk9: 6528a 212498i bk10: 6528a 209818i bk11: 6528a 205576i bk12: 6528a 193227i bk13: 6528a 188208i bk14: 6528a 182012i bk15: 6528a 169444i 
dram_util_bins: 0 0 0 0 0 0 0 0 0 0
dram_eff_bins: 0 0 0 0 0 0 0 0 0 0
mrqq: max=16 avg=14.2959

========= L2 cache stats =========
L2_cache_bank[0]: Access = 26087, Miss = 26045, Miss_rate = 0.998, Pending_hits = 9, Reservation_fails = 30509
L2_cache_bank[1]: Access = 26040, Miss = 26040, Miss_rate = 1.000, Pending_hits = 0, Reservation_fails = 28673
L2_cache_bank[2]: Access = 26072, Miss = 26044, Miss_rate = 0.999, Pending_hits = 6, Reservation_fails = 21635
L2_cache_bank[3]: Access = 26040, Miss = 26040, Miss_rate = 1.000, Pending_hits = 0, Reservation_fails = 32481
L2_cache_bank[4]: Access = 26072, Miss = 26044, Miss_rate = 0.999, Pending_hits = 6, Reservation_fails = 30682
L2_cache_bank[5]: Access = 26042, Miss = 26042, Miss_rate = 1.000, Pending_hits = 0, Reservation_fails = 28386
L2_cache_bank[6]: Access = 26072, Miss = 26044, Miss_rate = 0.999, Pending_hits = 6, Reservation_fails = 19341
L2_cache_bank[7]: Access = 26042, Miss = 26042, Miss_rate = 1.000, Pending_hits = 0, Reservation_fails = 26024
L2_cache_bank[8]: Access = 26042, Miss = 26042, Miss_rate = 1.000, Pending_hits = 0, Reservation_fails = 25337
L2_cache_bank[9]: Access = 26042, Miss = 26042, Miss_rate = 1.000, Pending_hits = 0, Reservation_fails = 42032
L2_cache_bank[10]: Access = 26042, Miss = 26042, Miss_rate = 1.000, Pending_hits = 0, Reservation_fails = 26671
L2_cache_bank[11]: Access = 26042, Miss = 26042, Miss_rate = 1.000, Pending_hits = 0, Reservation_fails = 26134
L2_total_cache_accesses = 312635
L2_total_cache_misses = 312509
L2_total_cache_miss_rate = 0.9996
L2_total_cache_pending_hits = 27
L2_total_cache_reservation_fails = 337905
L2_total_cache_breakdown:
	L2_cache_stats_breakdown[GLOBAL_ACC_R][MISS] = 187500
	L2_cache_stats_breakdown[GLOBAL_ACC_R][RESERVATION_FAIL] = 201648
	L2_cache_stats_breakdown[CONST_ACC_R][HIT] = 11
	L2_cache_stats_breakdown[CONST_ACC_R][HIT_RESERVED] = 3
	L2_cache_stats_breakdown[CONST_ACC_R][MISS] = 1
	L2_cache_stats_breakdown[CONST_ACC_R][RESERVATION_FAIL] = 109
	L2_cache_stats_breakdown[GLOBAL_ACC_W][MISS] = 125000
	L2_cache_stats_breakdown[GLOBAL_ACC_W][RESERVATION_FAIL] = 135385
	L2_cache_stats_breakdown[INST_ACC_R][HIT] = 88
	L2_cache_stats_breakdown[INST_ACC_R][HIT_RESERVED] = 24
	L2_cache_stats_breakdown[INST_ACC_R][MISS] = 8
	L2_cache_stats_breakdown[INST_ACC_R][RESERVATION_FAIL] = 763
L2_cache_data_port_util = 0.000
L2_cache_fill_port_util = 0.299

icnt_total_pkts_mem_to_simt=1063145
icnt_total_pkts_simt_to_mem=812635
LD_mem_lat_dist  0 0 0 0 0 0 0 0 0 0 0 0 0 0 0 0 0 0 0 0 0 0 0 0 0 0 0
ST_mem_lat_dist  0 0 0 0 0 0 0 0 0 0 0 0 0 0 0 0 0 0 0 0 0 0 0 0 0 0 0
----------------------------Interconnect-DETAILS--------------------------------
Class 0:
Packet latency average = 50.3257
	minimum = 6
	maximum = 793
Network latency average = 33.8136
	minimum = 6
	maximum = 590
Slowest packet = 4011
Flit latency average = 24.9454
	minimum = 6
	maximum = 590
Slowest flit = 344188
Fragmentation average = 0.495506
	minimum = 0
	maximum = 512
Injected packet rate average = 0.066365
	minimum = 0.0578563 (at node 7)
	maximum = 0.0747583 (at node 15)
Accepted packet rate average = 0.066365
	minimum = 0.0578563 (at node 7)
	maximum = 0.0747583 (at node 15)
Injected flit rate average = 0.199092
	minimum = 0.150385 (at node 7)
	maximum = 0.254308 (at node 15)
Accepted flit rate average= 0.199092
	minimum = 0.194022 (at node 16)
	maximum = 0.209413 (at node 5)
Injected packet length average = 2.99995
Accepted packet length average = 2.99995
Total in-flight flits = 0 (0 measured)
====== Overall Traffic Statistics ======
====== Traffic class 0 ======
Packet latency average = 50.3257 (1 samples)
	minimum = 6 (1 samples)
	maximum = 793 (1 samples)
Network latency average = 33.8136 (1 samples)
	minimum = 6 (1 samples)
	maximum = 590 (1 samples)
Flit latency average = 24.9454 (1 samples)
	minimum = 6 (1 samples)
	maximum = 590 (1 samples)
Fragmentation average = 0.495506 (1 samples)
	minimum = 0 (1 samples)
	maximum = 512 (1 samples)
Injected packet rate average = 0.066365 (1 samples)
	minimum = 0.0578563 (1 samples)
	maximum = 0.0747583 (1 samples)
Accepted packet rate average = 0.066365 (1 samples)
	minimum = 0.0578563 (1 samples)
	maximum = 0.0747583 (1 samples)
Injected flit rate average = 0.199092 (1 samples)
	minimum = 0.150385 (1 samples)
	maximum = 0.254308 (1 samples)
Accepted flit rate average = 0.199092 (1 samples)
	minimum = 0.194022 (1 samples)
	maximum = 0.209413 (1 samples)
Injected packet size average = 2.99995 (1 samples)
Accepted packet size average = 2.99995 (1 samples)
Hops average = 1 (1 samples)
----------------------------END-of-Interconnect-DETAILS-------------------------


gpgpu_simulation_time = 0 days, 0 hrs, 8 min, 13 sec (493 sec)
gpgpu_simulation_rate = 397123 (inst/sec)
gpgpu_simulation_rate = 707 (cycle/sec)
GPGPU-Sim API: Stream Manager State
GPGPU-Sim: detected inactive GPU simulation thread
Options count             : 4000000     
BlackScholesGPU() time    : 491077.343750 msec
Effective memory bandwidth: 0.000081 GB/s
Gigaoptions per second    : 0.000008     
Reading back GPU results...
Checking the results...
...running CPU calculations.
Comparing the results...
L1 norm: 1.729535E-07
Max absolute error: 1.192093E-05
TEST PASSED
Shutting down...
...releasing GPU memory.
...releasing CPU memory.
Shutdown done.
GPGPU-Sim: exit_simulation called
GPGPU-Sim: simulation thread signaled exit

Press ENTER to exit...
