

        *** GPGPU-Sim Simulator Version 3.2.2  [build 0] ***


GPGPU-Sim PTX: simulation mode 0 (can change with PTX_SIM_MODE_FUNC environment variable:
               1=functional simulation only, 0=detailed performance simulator)
GPGPU-Sim: Configuration options:

-network_mode                           1 # Interconnection network mode
-inter_config_file   config_fermi_islip.icnt # Interconnection network config file
-gpgpu_ptx_use_cuobjdump                    1 # Use cuobjdump to extract ptx and sass from binaries
-gpgpu_experimental_lib_support                    0 # Try to extract code from cuda libraries [Broken because of unknown cudaGetExportTable]
-gpgpu_ptx_convert_to_ptxplus                    0 # Convert SASS (native ISA) to ptxplus and run ptxplus
-gpgpu_ptx_force_max_capability                   20 # Force maximum compute capability
-gpgpu_ptx_inst_debug_to_file                    0 # Dump executed instructions' debug information to file
-gpgpu_ptx_inst_debug_file       inst_debug.txt # Executed instructions' debug output file
-gpgpu_ptx_inst_debug_thread_uid                    1 # Thread UID for executed instructions' debug output
-gpgpu_simd_model                       1 # 1 = post-dominator
-gpgpu_shader_core_pipeline              1536:32 # shader core pipeline config, i.e., {<nthread>:<warpsize>}
-gpgpu_tex_cache:l1  4:128:24,L:R:m:N:L,F:128:4,128:2 # per-shader L1 texture cache  (READ-ONLY) config  {<nsets>:<bsize>:<assoc>,<rep>:<wr>:<alloc>:<wr_alloc>,<mshr>:<N>:<merge>,<mq>:<rf>}
-gpgpu_const_cache:l1 64:64:2,L:R:f:N:L,A:2:32,4 # per-shader L1 constant memory cache  (READ-ONLY) config  {<nsets>:<bsize>:<assoc>,<rep>:<wr>:<alloc>:<wr_alloc>,<mshr>:<N>:<merge>,<mq>} 
-gpgpu_cache:il1     4:128:4,L:R:f:N:L,A:2:32,4 # shader L1 instruction cache config  {<nsets>:<bsize>:<assoc>,<rep>:<wr>:<alloc>:<wr_alloc>,<mshr>:<N>:<merge>,<mq>} 
-gpgpu_cache:dl1     32:128:4,L:L:m:N:H,A:32:8,8 # per-shader L1 data cache config  {<nsets>:<bsize>:<assoc>,<rep>:<wr>:<alloc>:<wr_alloc>,<mshr>:<N>:<merge>,<mq> | none}
-gpgpu_cache:dl1PrefL1                 none # per-shader L1 data cache config  {<nsets>:<bsize>:<assoc>,<rep>:<wr>:<alloc>:<wr_alloc>,<mshr>:<N>:<merge>,<mq> | none}
-gpgpu_cache:dl1PreShared                 none # per-shader L1 data cache config  {<nsets>:<bsize>:<assoc>,<rep>:<wr>:<alloc>:<wr_alloc>,<mshr>:<N>:<merge>,<mq> | none}
-gmem_skip_L1D                          0 # global memory access skip L1D cache (implements -Xptxas -dlcm=cg, default=no skip)
-gpgpu_perfect_mem                      0 # enable perfect memory mode (no cache miss)
-n_regfile_gating_group                    4 # group of lanes that should be read/written together)
-gpgpu_clock_gated_reg_file                    0 # enable clock gated reg file for power calculations
-gpgpu_clock_gated_lanes                    0 # enable clock gated lanes for power calculations
-gpgpu_shader_registers                32768 # Number of registers per shader core. Limits number of concurrent CTAs. (default 8192)
-gpgpu_shader_cta                       8 # Maximum number of concurrent CTAs in shader (default 8)
-gpgpu_num_cta_barriers                   16 # Maximum number of named barriers per CTA (default 16)
-gpgpu_n_clusters                      15 # number of processing clusters
-gpgpu_n_cores_per_cluster                    1 # number of simd cores per cluster
-gpgpu_n_cluster_ejection_buffer_size                    8 # number of packets in ejection buffer
-gpgpu_n_ldst_response_buffer_size                    2 # number of response packets in ld/st unit ejection buffer
-gpgpu_shmem_size                   16384 # Size of shared memory per shader core (default 16kB)
-gpgpu_shmem_size                   49152 # Size of shared memory per shader core (default 16kB)
-gpgpu_shmem_size_PrefL1                16384 # Size of shared memory per shader core (default 16kB)
-gpgpu_shmem_size_PrefShared                16384 # Size of shared memory per shader core (default 16kB)
-gpgpu_shmem_num_banks                   32 # Number of banks in the shared memory in each shader core (default 16)
-gpgpu_shmem_limited_broadcast                    0 # Limit shared memory to do one broadcast per cycle (default on)
-gpgpu_shmem_warp_parts                    1 # Number of portions a warp is divided into for shared memory bank conflict check 
-gpgpu_warpdistro_shader                   -1 # Specify which shader core to collect the warp size distribution from
-gpgpu_warp_issue_shader                    0 # Specify which shader core to collect the warp issue distribution from
-gpgpu_local_mem_map                    1 # Mapping from local memory space address to simulated GPU physical address space (default = enabled)
-gpgpu_num_reg_banks                   16 # Number of register banks (default = 8)
-gpgpu_reg_bank_use_warp_id                    0 # Use warp ID in mapping registers to banks (default = off)
-gpgpu_operand_collector_num_units_sp                    6 # number of collector units (default = 4)
-gpgpu_operand_collector_num_units_sfu                    8 # number of collector units (default = 4)
-gpgpu_operand_collector_num_units_mem                    2 # number of collector units (default = 2)
-gpgpu_operand_collector_num_units_gen                    0 # number of collector units (default = 0)
-gpgpu_operand_collector_num_in_ports_sp                    2 # number of collector unit in ports (default = 1)
-gpgpu_operand_collector_num_in_ports_sfu                    1 # number of collector unit in ports (default = 1)
-gpgpu_operand_collector_num_in_ports_mem                    1 # number of collector unit in ports (default = 1)
-gpgpu_operand_collector_num_in_ports_gen                    0 # number of collector unit in ports (default = 0)
-gpgpu_operand_collector_num_out_ports_sp                    2 # number of collector unit in ports (default = 1)
-gpgpu_operand_collector_num_out_ports_sfu                    1 # number of collector unit in ports (default = 1)
-gpgpu_operand_collector_num_out_ports_mem                    1 # number of collector unit in ports (default = 1)
-gpgpu_operand_collector_num_out_ports_gen                    0 # number of collector unit in ports (default = 0)
-gpgpu_coalesce_arch                   13 # Coalescing arch (default = 13, anything else is off for now)
-gpgpu_num_sched_per_core                    2 # Number of warp schedulers per core
-gpgpu_max_insn_issue_per_warp                    1 # Max number of instructions that can be issued per warp in one cycle by scheduler
-gpgpu_simt_core_sim_order                    1 # Select the simulation order of cores in a cluster (0=Fix, 1=Round-Robin)
-gpgpu_pipeline_widths        2,1,1,2,1,1,2 # Pipeline widths ID_OC_SP,ID_OC_SFU,ID_OC_MEM,OC_EX_SP,OC_EX_SFU,OC_EX_MEM,EX_WB
-gpgpu_num_sp_units                     2 # Number of SP units (default=1)
-gpgpu_num_sfu_units                    1 # Number of SF units (default=1)
-gpgpu_num_mem_units                    1 # Number if ldst units (default=1) WARNING: not hooked up to anything
-gpgpu_scheduler                      gto # Scheduler configuration: < lrr | gto | two_level_active > If two_level_active:<num_active_warps>:<inner_prioritization>:<outer_prioritization>For complete list of prioritization values see shader.h enum scheduler_prioritization_typeDefault: gto
-gpgpu_dram_scheduler                    1 # 0 = fifo, 1 = FR-FCFS (defaul)
-gpgpu_dram_partition_queues              8:8:8:8 # i2$:$2d:d2$:$2i
-l2_ideal                               0 # Use a ideal L2 cache that always hit
-gpgpu_cache:dl2     64:1024:8,L:B:m:W:L,A:32:4,4:0,32 # unified banked L2 data cache config  {<nsets>:<bsize>:<assoc>,<rep>:<wr>:<alloc>:<wr_alloc>,<mshr>:<N>:<merge>,<mq>}
-gpgpu_cache:dl2_texture_only                    0 # L2 cache used for texture only
-gpgpu_n_mem                            6 # number of memory modules (e.g. memory controllers) in gpu
-gpgpu_n_sub_partition_per_mchannel                    2 # number of memory subpartition in each memory module
-gpgpu_n_mem_per_ctrlr                    2 # number of memory chips per memory controller
-gpgpu_memlatency_stat                   14 # track and display latency statistics 0x2 enables MC, 0x4 enables queue logs
-gpgpu_frfcfs_dram_sched_queue_size                   16 # 0 = unlimited (default); # entries per chip
-gpgpu_dram_return_queue_size                  116 # 0 = unlimited (default); # entries per chip
-gpgpu_dram_buswidth                    4 # default = 4 bytes (8 bytes per cycle at DDR)
-gpgpu_dram_burst_length                    8 # Burst length of each DRAM request (default = 4 data bus cycle)
-dram_data_command_freq_ratio                    4 # Frequency ratio between DRAM data bus and command bus (default = 2 times, i.e. DDR)
-gpgpu_dram_timing_opt nbk=16:CCD=2:RRD=6:RCD=12:RAS=28:RP=12:RC=40: CL=12:WL=4:CDLR=5:WR=12:nbkgrp=4:CCDL=3:RTPL=2 # DRAM timing parameters = {nbk:tCCD:tRRD:tRCD:tRAS:tRP:tRC:CL:WL:tCDLR:tWR:nbkgrp:tCCDL:tRTPL}
-rop_latency                          120 # ROP queue latency (default 85)
-dram_latency                         100 # DRAM latency (default 30)
-gpgpu_mem_addr_mapping dramid@8;00000000.00000000.00000000.00000000.0000RRRR.RRRRRRRR.BBBCCCCB.CCSSSSSS # mapping memory address to dram model {dramid@<start bit>;<memory address map>}
-gpgpu_mem_addr_test                    0 # run sweep test to check address mapping for aliased address
-gpgpu_mem_address_mask                    1 # 0 = old addressing mask, 1 = new addressing mask, 2 = new add. mask + flipped bank sel and chip sel bits
-gpuwattch_xml_file  gpuwattch_gtx480.xml # GPUWattch XML file
-power_simulation_enabled                    1 # Turn on power simulator (1=On, 0=Off)
-power_per_cycle_dump                    0 # Dump detailed power output each cycle
-power_trace_enabled                    0 # produce a file for the power trace (1=On, 0=Off)
-power_trace_zlevel                     6 # Compression level of the power trace output log (0=no comp, 9=highest)
-steady_power_levels_enabled                    0 # produce a file for the steady power levels (1=On, 0=Off)
-steady_state_definition                  8:4 # allowed deviation:number of samples
-gpgpu_max_cycle                        0 # terminates gpu simulation early (0 = no limit)
-gpgpu_max_insn                         0 # terminates gpu simulation early (0 = no limit)
-gpgpu_max_cta                          0 # terminates gpu simulation early (0 = no limit)
-gpgpu_runtime_stat                   500 # display runtime statistics such as dram utilization {<freq>:<flag>}
-liveness_message_freq                    1 # Minimum number of seconds between simulation liveness messages (0 = always print)
-gpgpu_flush_l1_cache                    0 # Flush L1 cache at the end of each kernel call
-gpgpu_flush_l2_cache                    0 # Flush L2 cache at the end of each kernel call
-gpgpu_deadlock_detect                    1 # Stop the simulation at deadlock (1=on (default), 0=off)
-gpgpu_ptx_instruction_classification                    0 # if enabled will classify ptx instruction types per kernel (Max 255 kernels now)
-gpgpu_ptx_sim_mode                     0 # Select between Performance (default) or Functional simulation (1)
-gpgpu_clock_domains 700.0:700.0:700.0:924.0 # Clock Domain Frequencies in MhZ {<Core Clock>:<ICNT Clock>:<L2 Clock>:<DRAM Clock>}
-gpgpu_max_concurrent_kernel                    8 # maximum kernels that can run concurrently on GPU
-gpgpu_cflog_interval                    0 # Interval between each snapshot in control flow logger
-visualizer_enabled                     0 # Turn on visualizer output (1=On, 0=Off)
-visualizer_outputfile                 NULL # Specifies the output log file for visualizer
-visualizer_zlevel                      6 # Compression level of the visualizer output log (0=no comp, 9=highest)
-trace_enabled                          0 # Turn on traces
-trace_components                    none # comma seperated list of traces to enable. Complete list found in trace_streams.tup. Default none
-trace_sampling_core                    0 # The core which is printed using CORE_DPRINTF. Default 0
-trace_sampling_memory_partition                   -1 # The memory partition which is printed using MEMPART_DPRINTF. Default -1 (i.e. all)
-enable_ptx_file_line_stats                    1 # Turn on PTX source line statistic profiling. (1 = On)
-ptx_line_stats_filename gpgpu_inst_stats.txt # Output file for PTX source line statistics.
-save_embedded_ptx                      0 # saves ptx files embedded in binary as <n>.ptx
-keep                                   0 # keep intermediate files created by GPGPU-Sim when interfacing with external programs
-gpgpu_ptx_save_converted_ptxplus                    0 # Saved converted ptxplus to a file
-ptx_opcode_latency_int         4,13,4,5,145 # Opcode latencies for integers <ADD,MAX,MUL,MAD,DIV>Default 1,1,19,25,145
-ptx_opcode_latency_fp          4,13,4,5,39 # Opcode latencies for single precision floating points <ADD,MAX,MUL,MAD,DIV>Default 1,1,1,1,30
-ptx_opcode_latency_dp         8,19,8,8,330 # Opcode latencies for double precision floating points <ADD,MAX,MUL,MAD,DIV>Default 8,8,8,8,335
-ptx_opcode_initiation_int            1,2,2,1,8 # Opcode initiation intervals for integers <ADD,MAX,MUL,MAD,DIV>Default 1,1,4,4,32
-ptx_opcode_initiation_fp            1,2,1,1,4 # Opcode initiation intervals for single precision floating points <ADD,MAX,MUL,MAD,DIV>Default 1,1,1,1,5
-ptx_opcode_initiation_dp         8,16,8,8,130 # Opcode initiation intervals for double precision floating points <ADD,MAX,MUL,MAD,DIV>Default 8,8,8,8,130
DRAM Timing Options:
nbk                                    16 # number of banks
CCD                                     2 # column to column delay
RRD                                     6 # minimal delay between activation of rows in different banks
RCD                                    12 # row to column delay
RAS                                    28 # time needed to activate row
RP                                     12 # time needed to precharge (deactivate) row
RC                                     40 # row cycle time
CDLR                                    5 # switching from write to read (changes tWTR)
WR                                     12 # last data-in to row precharge
CL                                     12 # CAS latency
WL                                      4 # Write latency
nbkgrp                                  4 # number of bank groups
CCDL                                    3 # column to column delay between accesses to different bank groups
RTPL                                    2 # read to precharge delay between accesses to different bank groups
Total number of memory sub partition = 12
addr_dec_mask[CHIP]  = 0000000000000000 	high:64 low:0
addr_dec_mask[BK]    = 000000000000e100 	high:16 low:8
addr_dec_mask[ROW]   = 000000000fff0000 	high:28 low:16
addr_dec_mask[COL]   = 0000000000001eff 	high:13 low:0
addr_dec_mask[BURST] = 000000000000003f 	high:6 low:0
sub_partition_id_mask = 0000000000000100
GPGPU-Sim uArch: clock freqs: 700000000.000000:700000000.000000:700000000.000000:924000000.000000
GPGPU-Sim uArch: clock periods: 0.00000000142857142857:0.00000000142857142857:0.00000000142857142857:0.00000000108225108225
*** Initializing Memory Statistics ***
GPGPU-Sim uArch: interconnect node map (shaderID+MemID to icntID)
GPGPU-Sim uArch: Memory nodes ID start from index: 15
GPGPU-Sim uArch:    0   1   2   3   4
GPGPU-Sim uArch:    5   6   7   8   9
GPGPU-Sim uArch:   10  11  12  13  14
GPGPU-Sim uArch:   15  16  17  18  19
GPGPU-Sim uArch:   20  21  22  23  24
GPGPU-Sim uArch:   25  26
GPGPU-Sim uArch: interconnect node reverse map (icntID to shaderID+MemID)
GPGPU-Sim uArch: Memory nodes start from ID: 15
GPGPU-Sim uArch:    0   1   2   3   4
GPGPU-Sim uArch:    5   6   7   8   9
GPGPU-Sim uArch:   10  11  12  13  14
GPGPU-Sim uArch:   15  16  17  18  19
GPGPU-Sim uArch:   20  21  22  23  24
GPGPU-Sim uArch:   25  26
c498d9f32ab5dd92351405d48e0f6df7  /sciclone/data20/adwait/applications/benchmarks/CUDA/BFS/gpgpu_ptx_sim__BFS
GPGPU-Sim uArch: performance model initialization complete.
GPGPU-Sim PTX: __cudaRegisterFatBinary, fat_cubin_handle = 1, filename=bfs.cu
self exe links to: /sciclone/data20/adwait/applications/benchmarks/CUDA/BFS/gpgpu_ptx_sim__BFS
Running md5sum using "md5sum /sciclone/data20/adwait/applications/benchmarks/CUDA/BFS/gpgpu_ptx_sim__BFS "
Parsing file _cuobjdump_complete_output_BLW5Bs
######### cuobjdump parser ########
## Adding new section ELF
Adding arch: sm_20
Adding identifier: bfs.cu
## Adding new section PTX
Adding ptx filename: _cuobjdump_1.ptx
Adding arch: sm_20
Adding identifier: bfs.cu
Done parsing!!!
GPGPU-Sim PTX: __cudaRegisterFunction _Z6KernelP4NodePiPbS2_S1_S2_i : hostFun 0x0x405636, fat_cubin_handle = 1
GPGPU-Sim PTX: instruction assembly for function '_Z6KernelP4NodePiPbS2_S1_S2_i'...   done.
GPGPU-Sim PTX: finding reconvergence points for '_Z6KernelP4NodePiPbS2_S1_S2_i'...
GPGPU-Sim PTX: Finding dominators for '_Z6KernelP4NodePiPbS2_S1_S2_i'...
GPGPU-Sim PTX: Finding immediate dominators for '_Z6KernelP4NodePiPbS2_S1_S2_i'...
GPGPU-Sim PTX: Finding postdominators for '_Z6KernelP4NodePiPbS2_S1_S2_i'...
GPGPU-Sim PTX: Finding immediate postdominators for '_Z6KernelP4NodePiPbS2_S1_S2_i'...
GPGPU-Sim PTX: pre-decoding instructions for '_Z6KernelP4NodePiPbS2_S1_S2_i'...
GPGPU-Sim PTX: reconvergence points for _Z6KernelP4NodePiPbS2_S1_S2_i...
GPGPU-Sim PTX:  1 (potential) branch divergence @  PC=0x030 (_1.ptx:72) @%p1 bra $Lt_0_5122;
GPGPU-Sim PTX:    immediate post dominator      @  PC=0x1e8 (_1.ptx:141) exit;
GPGPU-Sim PTX:  2 (potential) branch divergence @  PC=0x068 (_1.ptx:79) @%p2 bra $Lt_0_5122;
GPGPU-Sim PTX:    immediate post dominator      @  PC=0x1e8 (_1.ptx:141) exit;
GPGPU-Sim PTX:  3 (potential) branch divergence @  PC=0x0e0 (_1.ptx:97) @%p3 bra $Lt_0_5122;
GPGPU-Sim PTX:    immediate post dominator      @  PC=0x1e8 (_1.ptx:141) exit;
GPGPU-Sim PTX:  4 (potential) branch divergence @  PC=0x138 (_1.ptx:111) @%p4 bra $Lt_0_4354;
GPGPU-Sim PTX:    immediate post dominator      @  PC=0x1c8 (_1.ptx:134) add.s32 %r11, %r11, 1;
GPGPU-Sim PTX:  5 (potential) branch divergence @  PC=0x1e0 (_1.ptx:137) @%p5 bra $Lt_0_4098;
GPGPU-Sim PTX:    immediate post dominator      @  PC=0x1e8 (_1.ptx:141) exit;
GPGPU-Sim PTX: ... end of reconvergence points for _Z6KernelP4NodePiPbS2_S1_S2_i
GPGPU-Sim PTX: ... done pre-decoding instructions for '_Z6KernelP4NodePiPbS2_S1_S2_i'.
GPGPU-Sim PTX: finished parsing EMBEDDED .ptx file _1.ptx
Adding _cuobjdump_1.ptx with cubin handle 1
GPGPU-Sim PTX: extracting embedded .ptx to temporary file "_ptx_l5tIDE"
Running: cat _ptx_l5tIDE | sed 's/.version 1.5/.version 1.4/' | sed 's/, texmode_independent//' | sed 's/\(\.extern \.const\[1\] .b8 \w\+\)\[\]/\1\[1\]/' | sed 's/const\[.\]/const\[0\]/g' > _ptx2_w96COQ
GPGPU-Sim PTX: generating ptxinfo using "$CUDA_INSTALL_PATH/bin/ptxas --gpu-name=sm_20 -v _ptx2_w96COQ --output-file  /dev/null 2> _ptx_l5tIDEinfo"
GPGPU-Sim PTX: Kernel '_Z6KernelP4NodePiPbS2_S1_S2_i' : regs=18, lmem=0, smem=0, cmem=84
GPGPU-Sim PTX: removing ptxinfo using "rm -f _ptx_l5tIDE _ptx2_w96COQ _ptx_l5tIDEinfo"
GPGPU-Sim PTX: loading globals with explicit initializers... 
GPGPU-Sim PTX: finished loading globals (0 bytes total).
GPGPU-Sim PTX: loading constants with explicit initializers...  done.
Reading File
Input file: ./data/graph65536.txt
Read File
Copied Everything to GPU memory

GPGPU-Sim PTX: cudaLaunch for 0x0x405636 (mode=performance simulation) on stream 0
GPGPU-Sim PTX: pushing kernel '_Z6KernelP4NodePiPbS2_S1_S2_i' to stream 0, gridDim= (256,1,1) blockDim = (256,1,1) 
kernel '_Z6KernelP4NodePiPbS2_S1_S2_i' transfer to GPU hardware scheduler
GPGPU-Sim uArch: Shader 1 bind to kernel 1 '_Z6KernelP4NodePiPbS2_S1_S2_i'
GPGPU-Sim uArch: CTA/core = 6, limited by: threads regs
GPGPU-Sim uArch: core:  1, cta: 0 initialized @(1,0)
GPGPU-Sim uArch: Shader 2 bind to kernel 1 '_Z6KernelP4NodePiPbS2_S1_S2_i'
GPGPU-Sim uArch: core:  2, cta: 0 initialized @(1,0)
GPGPU-Sim uArch: Shader 3 bind to kernel 1 '_Z6KernelP4NodePiPbS2_S1_S2_i'
GPGPU-Sim uArch: core:  3, cta: 0 initialized @(1,0)
GPGPU-Sim uArch: Shader 4 bind to kernel 1 '_Z6KernelP4NodePiPbS2_S1_S2_i'
GPGPU-Sim uArch: core:  4, cta: 0 initialized @(1,0)
GPGPU-Sim uArch: Shader 5 bind to kernel 1 '_Z6KernelP4NodePiPbS2_S1_S2_i'
GPGPU-Sim uArch: core:  5, cta: 0 initialized @(1,0)
GPGPU-Sim uArch: Shader 6 bind to kernel 1 '_Z6KernelP4NodePiPbS2_S1_S2_i'
GPGPU-Sim uArch: core:  6, cta: 0 initialized @(1,0)
GPGPU-Sim uArch: Shader 7 bind to kernel 1 '_Z6KernelP4NodePiPbS2_S1_S2_i'
GPGPU-Sim uArch: core:  7, cta: 0 initialized @(1,0)
GPGPU-Sim uArch: Shader 8 bind to kernel 1 '_Z6KernelP4NodePiPbS2_S1_S2_i'
GPGPU-Sim uArch: core:  8, cta: 0 initialized @(1,0)
GPGPU-Sim uArch: Shader 9 bind to kernel 1 '_Z6KernelP4NodePiPbS2_S1_S2_i'
GPGPU-Sim uArch: core:  9, cta: 0 initialized @(1,0)
GPGPU-Sim uArch: Shader 10 bind to kernel 1 '_Z6KernelP4NodePiPbS2_S1_S2_i'
GPGPU-Sim uArch: core: 10, cta: 0 initialized @(1,0)
GPGPU-Sim uArch: Shader 11 bind to kernel 1 '_Z6KernelP4NodePiPbS2_S1_S2_i'
GPGPU-Sim uArch: core: 11, cta: 0 initialized @(1,0)
GPGPU-Sim uArch: Shader 12 bind to kernel 1 '_Z6KernelP4NodePiPbS2_S1_S2_i'
GPGPU-Sim uArch: core: 12, cta: 0 initialized @(1,0)
GPGPU-Sim uArch: Shader 13 bind to kernel 1 '_Z6KernelP4NodePiPbS2_S1_S2_i'
GPGPU-Sim uArch: core: 13, cta: 0 initialized @(1,0)
GPGPU-Sim uArch: Shader 14 bind to kernel 1 '_Z6KernelP4NodePiPbS2_S1_S2_i'
GPGPU-Sim uArch: core: 14, cta: 0 initialized @(1,0)
GPGPU-Sim uArch: Shader 0 bind to kernel 1 '_Z6KernelP4NodePiPbS2_S1_S2_i'
GPGPU-Sim uArch: core:  0, cta: 0 initialized @(1,0)
GPGPU-Sim uArch: core:  1, cta: 1 initialized @(2,0)
GPGPU-Sim uArch: core:  2, cta: 1 initialized @(2,0)
GPGPU-Sim uArch: core:  3, cta: 1 initialized @(2,0)
GPGPU-Sim uArch: core:  4, cta: 1 initialized @(2,0)
GPGPU-Sim uArch: core:  5, cta: 1 initialized @(2,0)
GPGPU-Sim uArch: core:  6, cta: 1 initialized @(2,0)
GPGPU-Sim uArch: core:  7, cta: 1 initialized @(2,0)
GPGPU-Sim uArch: core:  8, cta: 1 initialized @(2,0)
GPGPU-Sim uArch: core:  9, cta: 1 initialized @(2,0)
GPGPU-Sim uArch: core: 10, cta: 1 initialized @(2,0)
GPGPU-Sim uArch: core: 11, cta: 1 initialized @(2,0)
GPGPU-Sim uArch: core: 12, cta: 1 initialized @(2,0)
GPGPU-Sim uArch: core: 13, cta: 1 initialized @(2,0)
GPGPU-Sim uArch: core: 14, cta: 1 initialized @(2,0)
GPGPU-Sim uArch: core:  0, cta: 1 initialized @(2,0)
GPGPU-Sim uArch: core:  1, cta: 2 initialized @(3,0)
GPGPU-Sim uArch: core:  2, cta: 2 initialized @(3,0)
GPGPU-Sim uArch: core:  3, cta: 2 initialized @(3,0)
GPGPU-Sim uArch: core:  4, cta: 2 initialized @(3,0)
GPGPU-Sim uArch: core:  5, cta: 2 initialized @(3,0)
GPGPU-Sim uArch: core:  6, cta: 2 initialized @(3,0)
GPGPU-Sim uArch: core:  7, cta: 2 initialized @(3,0)
GPGPU-Sim uArch: core:  8, cta: 2 initialized @(3,0)
GPGPU-Sim uArch: core:  9, cta: 2 initialized @(3,0)
GPGPU-Sim uArch: core: 10, cta: 2 initialized @(3,0)
GPGPU-Sim uArch: core: 11, cta: 2 initialized @(3,0)
GPGPU-Sim uArch: core: 12, cta: 2 initialized @(3,0)
GPGPU-Sim uArch: core: 13, cta: 2 initialized @(3,0)
GPGPU-Sim uArch: core: 14, cta: 2 initialized @(3,0)
GPGPU-Sim uArch: core:  0, cta: 2 initialized @(3,0)
GPGPU-Sim uArch: core:  1, cta: 3 initialized @(4,0)
GPGPU-Sim uArch: core:  2, cta: 3 initialized @(4,0)
GPGPU-Sim uArch: core:  3, cta: 3 initialized @(4,0)
GPGPU-Sim uArch: core:  4, cta: 3 initialized @(4,0)
GPGPU-Sim uArch: core:  5, cta: 3 initialized @(4,0)
GPGPU-Sim uArch: core:  6, cta: 3 initialized @(4,0)
GPGPU-Sim uArch: core:  7, cta: 3 initialized @(4,0)
GPGPU-Sim uArch: core:  8, cta: 3 initialized @(4,0)
GPGPU-Sim uArch: core:  9, cta: 3 initialized @(4,0)
GPGPU-Sim uArch: core: 10, cta: 3 initialized @(4,0)
GPGPU-Sim uArch: core: 11, cta: 3 initialized @(4,0)
GPGPU-Sim uArch: core: 12, cta: 3 initialized @(4,0)
GPGPU-Sim uArch: core: 13, cta: 3 initialized @(4,0)
GPGPU-Sim uArch: core: 14, cta: 3 initialized @(4,0)
GPGPU-Sim uArch: core:  0, cta: 3 initialized @(4,0)
GPGPU-Sim uArch: core:  1, cta: 4 initialized @(5,0)
GPGPU-Sim uArch: core:  2, cta: 4 initialized @(5,0)
GPGPU-Sim uArch: core:  3, cta: 4 initialized @(5,0)
GPGPU-Sim uArch: core:  4, cta: 4 initialized @(5,0)
GPGPU-Sim uArch: core:  5, cta: 4 initialized @(5,0)
GPGPU-Sim uArch: core:  6, cta: 4 initialized @(5,0)
GPGPU-Sim uArch: core:  7, cta: 4 initialized @(5,0)
GPGPU-Sim uArch: core:  8, cta: 4 initialized @(5,0)
GPGPU-Sim uArch: core:  9, cta: 4 initialized @(5,0)
GPGPU-Sim uArch: core: 10, cta: 4 initialized @(5,0)
GPGPU-Sim uArch: core: 11, cta: 4 initialized @(5,0)
GPGPU-Sim uArch: core: 12, cta: 4 initialized @(5,0)
GPGPU-Sim uArch: core: 13, cta: 4 initialized @(5,0)
GPGPU-Sim uArch: core: 14, cta: 4 initialized @(5,0)
GPGPU-Sim uArch: core:  0, cta: 4 initialized @(5,0)
GPGPU-Sim uArch: core:  1, cta: 5 initialized @(6,0)
GPGPU-Sim uArch: core:  2, cta: 5 initialized @(6,0)
GPGPU-Sim uArch: core:  3, cta: 5 initialized @(6,0)
GPGPU-Sim uArch: core:  4, cta: 5 initialized @(6,0)
GPGPU-Sim uArch: core:  5, cta: 5 initialized @(6,0)
GPGPU-Sim uArch: core:  6, cta: 5 initialized @(6,0)
GPGPU-Sim uArch: core:  7, cta: 5 initialized @(6,0)
GPGPU-Sim uArch: core:  8, cta: 5 initialized @(6,0)
GPGPU-Sim uArch: core:  9, cta: 5 initialized @(6,0)
GPGPU-Sim uArch: core: 10, cta: 5 initialized @(6,0)
GPGPU-Sim uArch: core: 11, cta: 5 initialized @(6,0)
GPGPU-Sim uArch: core: 12, cta: 5 initialized @(6,0)
GPGPU-Sim uArch: core: 13, cta: 5 initialized @(6,0)
GPGPU-Sim uArch: core: 14, cta: 5 initialized @(6,0)
GPGPU-Sim uArch: core:  0, cta: 5 initialized @(6,0)
GPGPU-Sim PTX: 100000 instructions simulated : ctaid=(68,0,0) tid=(159,0,0)
GPGPU-Sim uArch: cycles simulated: 500  inst.: 89504 (ipc=179.0) sim_rate=44752 (inst/sec) elapsed = 0:0:00:02 / Sun Feb 28 21:44:58 2016
GPGPU-Sim PTX: 200000 instructions simulated : ctaid=(24,0,0) tid=(191,0,0)
GPGPU-Sim PTX: 300000 instructions simulated : ctaid=(82,0,0) tid=(85,0,0)
GPGPU-Sim uArch: Shader 5 finished CTA #0 (1378,0), 5 CTAs running
GPGPU-Sim uArch: Shader 5 finished CTA #2 (1378,0), 4 CTAs running
GPGPU-Sim uArch: core:  5, cta: 0 initialized @(1379,0)
GPGPU-Sim uArch: core:  5, cta: 2 initialized @(1380,0)
GPGPU-Sim uArch: Shader 4 finished CTA #0 (1390,0), 5 CTAs running
GPGPU-Sim uArch: core:  4, cta: 0 initialized @(1391,0)
GPGPU-Sim uArch: Shader 3 finished CTA #0 (1392,0), 5 CTAs running
GPGPU-Sim uArch: Shader 3 finished CTA #1 (1392,0), 4 CTAs running
GPGPU-Sim uArch: Shader 3 finished CTA #2 (1392,0), 3 CTAs running
GPGPU-Sim uArch: core:  3, cta: 0 initialized @(1393,0)
GPGPU-Sim uArch: core:  3, cta: 1 initialized @(1394,0)
GPGPU-Sim uArch: core:  3, cta: 2 initialized @(1395,0)
GPGPU-Sim uArch: Shader 4 finished CTA #2 (1398,0), 5 CTAs running
GPGPU-Sim uArch: Shader 4 finished CTA #3 (1398,0), 4 CTAs running
GPGPU-Sim uArch: core:  4, cta: 2 initialized @(1399,0)
GPGPU-Sim uArch: Shader 5 finished CTA #3 (1399,0), 5 CTAs running
GPGPU-Sim uArch: core:  5, cta: 3 initialized @(1400,0)
GPGPU-Sim uArch: core:  4, cta: 3 initialized @(1400,0)
GPGPU-Sim uArch: Shader 1 finished CTA #3 (1403,0), 5 CTAs running
GPGPU-Sim uArch: Shader 1 finished CTA #4 (1403,0), 4 CTAs running
GPGPU-Sim uArch: core:  1, cta: 3 initialized @(1404,0)
GPGPU-Sim uArch: core:  1, cta: 4 initialized @(1405,0)
GPGPU-Sim uArch: Shader 2 finished CTA #3 (1410,0), 5 CTAs running
GPGPU-Sim uArch: Shader 2 finished CTA #4 (1410,0), 4 CTAs running
GPGPU-Sim uArch: Shader 2 finished CTA #0 (1410,0), 3 CTAs running
GPGPU-Sim uArch: core:  2, cta: 0 initialized @(1411,0)
GPGPU-Sim uArch: core:  2, cta: 3 initialized @(1412,0)
GPGPU-Sim uArch: core:  2, cta: 4 initialized @(1413,0)
GPGPU-Sim uArch: Shader 6 finished CTA #1 (1416,0), 5 CTAs running
GPGPU-Sim uArch: Shader 6 finished CTA #2 (1416,0), 4 CTAs running
GPGPU-Sim uArch: Shader 6 finished CTA #5 (1416,0), 3 CTAs running
GPGPU-Sim uArch: core:  6, cta: 1 initialized @(1417,0)
GPGPU-Sim uArch: Shader 3 finished CTA #3 (1417,0), 5 CTAs running
GPGPU-Sim uArch: core:  3, cta: 3 initialized @(1418,0)
GPGPU-Sim uArch: core:  6, cta: 2 initialized @(1418,0)
GPGPU-Sim uArch: core:  6, cta: 5 initialized @(1419,0)
GPGPU-Sim uArch: Shader 2 finished CTA #1 (1419,0), 5 CTAs running
GPGPU-Sim uArch: core:  2, cta: 1 initialized @(1420,0)
GPGPU-Sim uArch: Shader 1 finished CTA #1 (1420,0), 5 CTAs running
GPGPU-Sim uArch: core:  1, cta: 1 initialized @(1421,0)
GPGPU-Sim uArch: Shader 10 finished CTA #0 (1422,0), 5 CTAs running
GPGPU-Sim uArch: Shader 10 finished CTA #1 (1422,0), 4 CTAs running
GPGPU-Sim uArch: Shader 10 finished CTA #4 (1422,0), 3 CTAs running
GPGPU-Sim uArch: core: 10, cta: 0 initialized @(1423,0)
GPGPU-Sim uArch: core: 10, cta: 1 initialized @(1424,0)
GPGPU-Sim uArch: core: 10, cta: 4 initialized @(1425,0)
GPGPU-Sim uArch: Shader 14 finished CTA #3 (1433,0), 5 CTAs running
GPGPU-Sim uArch: Shader 14 finished CTA #4 (1433,0), 4 CTAs running
GPGPU-Sim uArch: Shader 14 finished CTA #0 (1433,0), 3 CTAs running
GPGPU-Sim uArch: core: 14, cta: 0 initialized @(1434,0)
GPGPU-Sim uArch: core: 14, cta: 3 initialized @(1435,0)
GPGPU-Sim uArch: core: 14, cta: 4 initialized @(1436,0)
GPGPU-Sim uArch: Shader 12 finished CTA #3 (1436,0), 5 CTAs running
GPGPU-Sim uArch: Shader 12 finished CTA #4 (1436,0), 4 CTAs running
GPGPU-Sim uArch: Shader 12 finished CTA #0 (1436,0), 3 CTAs running
GPGPU-Sim uArch: Shader 12 finished CTA #1 (1436,0), 2 CTAs running
GPGPU-Sim uArch: core: 12, cta: 0 initialized @(1437,0)
GPGPU-Sim uArch: core: 12, cta: 1 initialized @(1438,0)
GPGPU-Sim uArch: Shader 4 finished CTA #1 (1438,0), 5 CTAs running
GPGPU-Sim uArch: core:  4, cta: 1 initialized @(1439,0)
GPGPU-Sim uArch: core: 12, cta: 3 initialized @(1439,0)
GPGPU-Sim uArch: core: 12, cta: 4 initialized @(1440,0)
GPGPU-Sim uArch: Shader 11 finished CTA #0 (1440,0), 5 CTAs running
GPGPU-Sim uArch: Shader 11 finished CTA #1 (1440,0), 4 CTAs running
GPGPU-Sim uArch: core: 11, cta: 0 initialized @(1441,0)
GPGPU-Sim uArch: Shader 6 finished CTA #0 (1441,0), 5 CTAs running
GPGPU-Sim uArch: core:  6, cta: 0 initialized @(1442,0)
GPGPU-Sim uArch: core: 11, cta: 1 initialized @(1442,0)
GPGPU-Sim uArch: Shader 9 finished CTA #4 (1448,0), 5 CTAs running
GPGPU-Sim uArch: Shader 9 finished CTA #0 (1448,0), 4 CTAs running
GPGPU-Sim uArch: Shader 9 finished CTA #1 (1448,0), 3 CTAs running
GPGPU-Sim uArch: Shader 11 finished CTA #4 (1448,0), 5 CTAs running
GPGPU-Sim uArch: Shader 11 finished CTA #5 (1448,0), 4 CTAs running
GPGPU-Sim uArch: core:  9, cta: 0 initialized @(1449,0)
GPGPU-Sim uArch: core: 11, cta: 4 initialized @(1449,0)
GPGPU-Sim uArch: core:  9, cta: 1 initialized @(1450,0)
GPGPU-Sim uArch: core: 11, cta: 5 initialized @(1450,0)
GPGPU-Sim uArch: core:  9, cta: 4 initialized @(1451,0)
GPGPU-Sim uArch: Shader 7 finished CTA #1 (1452,0), 5 CTAs running
GPGPU-Sim uArch: Shader 7 finished CTA #2 (1452,0), 4 CTAs running
GPGPU-Sim uArch: Shader 7 finished CTA #5 (1452,0), 3 CTAs running
GPGPU-Sim uArch: core:  7, cta: 1 initialized @(1453,0)
GPGPU-Sim uArch: core:  7, cta: 2 initialized @(1454,0)
GPGPU-Sim uArch: core:  7, cta: 5 initialized @(1455,0)
GPGPU-Sim uArch: Shader 10 finished CTA #5 (1455,0), 5 CTAs running
GPGPU-Sim uArch: core: 10, cta: 5 initialized @(1456,0)
GPGPU-Sim uArch: Shader 14 finished CTA #1 (1461,0), 5 CTAs running
GPGPU-Sim uArch: core: 14, cta: 1 initialized @(1462,0)
GPGPU-Sim uArch: Shader 8 finished CTA #1 (1464,0), 5 CTAs running
GPGPU-Sim uArch: Shader 8 finished CTA #2 (1464,0), 4 CTAs running
GPGPU-Sim uArch: Shader 8 finished CTA #5 (1464,0), 3 CTAs running
GPGPU-Sim uArch: Shader 13 finished CTA #3 (1464,0), 5 CTAs running
GPGPU-Sim uArch: Shader 13 finished CTA #4 (1464,0), 4 CTAs running
GPGPU-Sim uArch: Shader 13 finished CTA #0 (1464,0), 3 CTAs running
GPGPU-Sim uArch: core:  8, cta: 1 initialized @(1465,0)
GPGPU-Sim uArch: core: 13, cta: 0 initialized @(1465,0)
GPGPU-Sim uArch: core:  8, cta: 2 initialized @(1466,0)
GPGPU-Sim uArch: core: 13, cta: 3 initialized @(1466,0)
GPGPU-Sim uArch: Shader 5 finished CTA #1 (1466,0), 5 CTAs running
GPGPU-Sim uArch: core:  5, cta: 1 initialized @(1467,0)
GPGPU-Sim uArch: core:  8, cta: 5 initialized @(1467,0)
GPGPU-Sim uArch: core: 13, cta: 4 initialized @(1467,0)
GPGPU-Sim uArch: Shader 0 finished CTA #2 (1470,0), 5 CTAs running
GPGPU-Sim uArch: Shader 0 finished CTA #3 (1470,0), 4 CTAs running
GPGPU-Sim uArch: Shader 0 finished CTA #0 (1470,0), 3 CTAs running
GPGPU-Sim uArch: core:  0, cta: 0 initialized @(1471,0)
GPGPU-Sim uArch: Shader 9 finished CTA #5 (1471,0), 5 CTAs running
GPGPU-Sim uArch: core:  9, cta: 5 initialized @(1472,0)
GPGPU-Sim uArch: core:  0, cta: 2 initialized @(1472,0)
GPGPU-Sim uArch: core:  0, cta: 3 initialized @(1473,0)
GPGPU-Sim uArch: Shader 12 finished CTA #2 (1476,0), 5 CTAs running
GPGPU-Sim uArch: core: 12, cta: 2 initialized @(1477,0)
GPGPU-Sim uArch: Shader 0 finished CTA #1 (1479,0), 5 CTAs running
GPGPU-Sim uArch: core:  0, cta: 1 initialized @(1480,0)
GPGPU-Sim uArch: Shader 7 finished CTA #0 (1484,0), 5 CTAs running
GPGPU-Sim uArch: core:  7, cta: 0 initialized @(1485,0)
GPGPU-Sim uArch: Shader 9 finished CTA #2 (1487,0), 5 CTAs running
GPGPU-Sim uArch: core:  9, cta: 2 initialized @(1488,0)
GPGPU-Sim uArch: Shader 8 finished CTA #0 (1489,0), 5 CTAs running
GPGPU-Sim uArch: core:  8, cta: 0 initialized @(1490,0)
GPGPU-Sim uArch: Shader 13 finished CTA #1 (1496,0), 5 CTAs running
GPGPU-Sim uArch: core: 13, cta: 1 initialized @(1497,0)
GPGPU-Sim uArch: cycles simulated: 1500  inst.: 345544 (ipc=230.4) sim_rate=115181 (inst/sec) elapsed = 0:0:00:03 / Sun Feb 28 21:44:59 2016
GPGPU-Sim uArch: Shader 11 finished CTA #2 (1504,0), 5 CTAs running
GPGPU-Sim uArch: core: 11, cta: 2 initialized @(1505,0)
GPGPU-Sim uArch: Shader 1 finished CTA #2 (1505,0), 5 CTAs running
GPGPU-Sim uArch: core:  1, cta: 2 initialized @(1506,0)
GPGPU-Sim uArch: Shader 10 finished CTA #2 (1511,0), 5 CTAs running
GPGPU-Sim uArch: core: 10, cta: 2 initialized @(1512,0)
GPGPU-Sim PTX: 400000 instructions simulated : ctaid=(119,0,0) tid=(21,0,0)
GPGPU-Sim uArch: Shader 2 finished CTA #2 (1528,0), 5 CTAs running
GPGPU-Sim uArch: core:  2, cta: 2 initialized @(1529,0)
GPGPU-Sim uArch: Shader 13 finished CTA #2 (1529,0), 5 CTAs running
GPGPU-Sim uArch: core: 13, cta: 2 initialized @(1530,0)
GPGPU-Sim uArch: Shader 6 finished CTA #3 (1539,0), 5 CTAs running
GPGPU-Sim uArch: core:  6, cta: 3 initialized @(1540,0)
GPGPU-Sim uArch: Shader 5 finished CTA #4 (1555,0), 5 CTAs running
GPGPU-Sim uArch: core:  5, cta: 4 initialized @(1556,0)
GPGPU-Sim uArch: Shader 14 finished CTA #2 (1562,0), 5 CTAs running
GPGPU-Sim uArch: core: 14, cta: 2 initialized @(1563,0)
GPGPU-Sim uArch: Shader 9 finished CTA #3 (1570,0), 5 CTAs running
GPGPU-Sim uArch: core:  9, cta: 3 initialized @(1571,0)
GPGPU-Sim uArch: Shader 0 finished CTA #4 (1574,0), 5 CTAs running
GPGPU-Sim uArch: core:  0, cta: 4 initialized @(1575,0)
GPGPU-Sim uArch: Shader 4 finished CTA #4 (1575,0), 5 CTAs running
GPGPU-Sim uArch: Shader 7 finished CTA #3 (1575,0), 5 CTAs running
GPGPU-Sim uArch: core:  4, cta: 4 initialized @(1576,0)
GPGPU-Sim uArch: core:  7, cta: 3 initialized @(1576,0)
GPGPU-Sim uArch: Shader 6 finished CTA #4 (1586,0), 5 CTAs running
GPGPU-Sim uArch: core:  6, cta: 4 initialized @(1587,0)
GPGPU-Sim uArch: Shader 11 finished CTA #3 (1593,0), 5 CTAs running
GPGPU-Sim uArch: core: 11, cta: 3 initialized @(1594,0)
GPGPU-Sim uArch: Shader 10 finished CTA #3 (1598,0), 5 CTAs running
GPGPU-Sim uArch: core: 10, cta: 3 initialized @(1599,0)
GPGPU-Sim uArch: Shader 3 finished CTA #4 (1611,0), 5 CTAs running
GPGPU-Sim uArch: Shader 3 finished CTA #5 (1611,0), 4 CTAs running
GPGPU-Sim uArch: core:  3, cta: 4 initialized @(1612,0)
GPGPU-Sim uArch: core:  3, cta: 5 initialized @(1613,0)
GPGPU-Sim uArch: Shader 1 finished CTA #5 (1613,0), 5 CTAs running
GPGPU-Sim uArch: core:  1, cta: 5 initialized @(1614,0)
GPGPU-Sim uArch: Shader 8 finished CTA #3 (1619,0), 5 CTAs running
GPGPU-Sim uArch: Shader 8 finished CTA #4 (1619,0), 4 CTAs running
GPGPU-Sim uArch: core:  8, cta: 3 initialized @(1620,0)
GPGPU-Sim uArch: core:  8, cta: 4 initialized @(1621,0)
GPGPU-Sim uArch: Shader 7 finished CTA #4 (1623,0), 5 CTAs running
GPGPU-Sim uArch: core:  7, cta: 4 initialized @(1624,0)
GPGPU-Sim PTX: 500000 instructions simulated : ctaid=(131,0,0) tid=(175,0,0)
GPGPU-Sim uArch: Shader 4 finished CTA #5 (1651,0), 5 CTAs running
GPGPU-Sim uArch: core:  4, cta: 5 initialized @(1652,0)
GPGPU-Sim uArch: Shader 5 finished CTA #5 (1659,0), 5 CTAs running
GPGPU-Sim uArch: Shader 12 finished CTA #5 (1659,0), 5 CTAs running
GPGPU-Sim uArch: core:  5, cta: 5 initialized @(1660,0)
GPGPU-Sim uArch: core: 12, cta: 5 initialized @(1660,0)
GPGPU-Sim uArch: Shader 0 finished CTA #5 (1661,0), 5 CTAs running
GPGPU-Sim uArch: core:  0, cta: 5 initialized @(1662,0)
GPGPU-Sim uArch: Shader 2 finished CTA #5 (1676,0), 5 CTAs running
GPGPU-Sim uArch: core:  2, cta: 5 initialized @(1677,0)
GPGPU-Sim uArch: Shader 13 finished CTA #5 (1696,0), 5 CTAs running
GPGPU-Sim uArch: core: 13, cta: 5 initialized @(1697,0)
GPGPU-Sim uArch: Shader 14 finished CTA #5 (1707,0), 5 CTAs running
GPGPU-Sim uArch: core: 14, cta: 5 initialized @(1708,0)
GPGPU-Sim PTX: 600000 instructions simulated : ctaid=(172,0,0) tid=(141,0,0)
GPGPU-Sim uArch: Shader 3 finished CTA #0 (1845,0), 5 CTAs running
GPGPU-Sim uArch: core:  3, cta: 0 initialized @(1846,0)
GPGPU-Sim uArch: Shader 5 finished CTA #0 (1858,0), 5 CTAs running
GPGPU-Sim uArch: core:  5, cta: 0 initialized @(1859,0)
GPGPU-Sim uArch: Shader 5 finished CTA #2 (1872,0), 5 CTAs running
GPGPU-Sim uArch: core:  5, cta: 2 initialized @(1873,0)
GPGPU-Sim uArch: Shader 4 finished CTA #0 (1878,0), 5 CTAs running
GPGPU-Sim uArch: core:  4, cta: 0 initialized @(1879,0)
GPGPU-Sim uArch: Shader 3 finished CTA #1 (1880,0), 5 CTAs running
GPGPU-Sim uArch: core:  3, cta: 1 initialized @(1881,0)
GPGPU-Sim uArch: Shader 1 finished CTA #3 (1882,0), 5 CTAs running
GPGPU-Sim uArch: core:  1, cta: 3 initialized @(1883,0)
GPGPU-Sim uArch: Shader 3 finished CTA #2 (1904,0), 5 CTAs running
GPGPU-Sim uArch: core:  3, cta: 2 initialized @(1905,0)
GPGPU-Sim uArch: Shader 4 finished CTA #2 (1910,0), 5 CTAs running
GPGPU-Sim uArch: core:  4, cta: 2 initialized @(1911,0)
GPGPU-Sim uArch: Shader 1 finished CTA #4 (1920,0), 5 CTAs running
GPGPU-Sim uArch: core:  1, cta: 4 initialized @(1921,0)
GPGPU-Sim uArch: Shader 2 finished CTA #0 (1923,0), 5 CTAs running
GPGPU-Sim uArch: core:  2, cta: 0 initialized @(1924,0)
GPGPU-Sim uArch: Shader 14 finished CTA #3 (1928,0), 5 CTAs running
GPGPU-Sim uArch: core: 14, cta: 3 initialized @(1929,0)
GPGPU-Sim uArch: Shader 4 finished CTA #3 (1934,0), 5 CTAs running
GPGPU-Sim uArch: core:  4, cta: 3 initialized @(1935,0)
GPGPU-Sim uArch: Shader 1 finished CTA #1 (1944,0), 5 CTAs running
GPGPU-Sim uArch: core:  1, cta: 1 initialized @(1945,0)
GPGPU-Sim uArch: Shader 12 finished CTA #3 (1960,0), 5 CTAs running
GPGPU-Sim uArch: core: 12, cta: 3 initialized @(1961,0)
GPGPU-Sim uArch: Shader 12 finished CTA #1 (1976,0), 5 CTAs running
GPGPU-Sim uArch: core: 12, cta: 1 initialized @(1977,0)
GPGPU-Sim uArch: Shader 6 finished CTA #2 (1983,0), 5 CTAs running
GPGPU-Sim uArch: core:  6, cta: 2 initialized @(1984,0)
GPGPU-Sim uArch: Shader 2 finished CTA #1 (1987,0), 5 CTAs running
GPGPU-Sim uArch: core:  2, cta: 1 initialized @(1988,0)
GPGPU-Sim uArch: Shader 5 finished CTA #3 (1989,0), 5 CTAs running
GPGPU-Sim uArch: core:  5, cta: 3 initialized @(1990,0)
GPGPU-Sim uArch: Shader 8 finished CTA #1 (1991,0), 5 CTAs running
GPGPU-Sim uArch: core:  8, cta: 1 initialized @(1992,0)
GPGPU-Sim uArch: Shader 6 finished CTA #1 (1995,0), 5 CTAs running
GPGPU-Sim uArch: core:  6, cta: 1 initialized @(1996,0)
GPGPU-Sim uArch: Shader 13 finished CTA #3 (1998,0), 5 CTAs running
GPGPU-Sim uArch: core: 13, cta: 3 initialized @(1999,0)
GPGPU-Sim uArch: Shader 8 finished CTA #2 (2007,0), 5 CTAs running
GPGPU-Sim uArch: core:  8, cta: 2 initialized @(2008,0)
GPGPU-Sim uArch: Shader 10 finished CTA #1 (2024,0), 5 CTAs running
GPGPU-Sim uArch: core: 10, cta: 1 initialized @(2025,0)
GPGPU-Sim uArch: Shader 8 finished CTA #5 (2025,0), 5 CTAs running
GPGPU-Sim uArch: core:  8, cta: 5 initialized @(2026,0)
GPGPU-Sim uArch: Shader 11 finished CTA #0 (2032,0), 5 CTAs running
GPGPU-Sim uArch: core: 11, cta: 0 initialized @(2033,0)
GPGPU-Sim uArch: Shader 5 finished CTA #1 (2035,0), 5 CTAs running
GPGPU-Sim uArch: core:  5, cta: 1 initialized @(2036,0)
GPGPU-Sim uArch: Shader 3 finished CTA #3 (2040,0), 5 CTAs running
GPGPU-Sim uArch: core:  3, cta: 3 initialized @(2041,0)
GPGPU-Sim uArch: Shader 4 finished CTA #1 (2046,0), 5 CTAs running
GPGPU-Sim uArch: core:  4, cta: 1 initialized @(2047,0)
GPGPU-Sim PTX: 700000 instructions simulated : ctaid=(192,0,0) tid=(107,0,0)
GPGPU-Sim uArch: Shader 12 finished CTA #0 (2063,0), 5 CTAs running
GPGPU-Sim uArch: core: 12, cta: 0 initialized @(2064,0)
GPGPU-Sim uArch: Shader 6 finished CTA #5 (2068,0), 5 CTAs running
GPGPU-Sim uArch: core:  6, cta: 5 initialized @(2069,0)
GPGPU-Sim uArch: Shader 11 finished CTA #1 (2073,0), 5 CTAs running
GPGPU-Sim uArch: core: 11, cta: 1 initialized @(2074,0)
GPGPU-Sim uArch: Shader 10 finished CTA #4 (2078,0), 5 CTAs running
GPGPU-Sim uArch: Shader 12 finished CTA #4 (2078,0), 5 CTAs running
GPGPU-Sim uArch: core: 12, cta: 4 initialized @(2079,0)
GPGPU-Sim uArch: core: 10, cta: 4 initialized @(2079,0)
GPGPU-Sim uArch: Shader 14 finished CTA #0 (2083,0), 5 CTAs running
GPGPU-Sim uArch: core: 14, cta: 0 initialized @(2084,0)
GPGPU-Sim uArch: Shader 9 finished CTA #0 (2086,0), 5 CTAs running
GPGPU-Sim uArch: core:  9, cta: 0 initialized @(2087,0)
GPGPU-Sim uArch: Shader 2 finished CTA #3 (2091,0), 5 CTAs running
GPGPU-Sim uArch: core:  2, cta: 3 initialized @(2092,0)
GPGPU-Sim uArch: Shader 14 finished CTA #4 (2092,0), 5 CTAs running
GPGPU-Sim uArch: core: 14, cta: 4 initialized @(2093,0)
GPGPU-Sim uArch: Shader 7 finished CTA #1 (2097,0), 5 CTAs running
GPGPU-Sim uArch: Shader 10 finished CTA #0 (2097,0), 5 CTAs running
GPGPU-Sim uArch: core:  7, cta: 1 initialized @(2098,0)
GPGPU-Sim uArch: core: 10, cta: 0 initialized @(2098,0)
GPGPU-Sim uArch: Shader 2 finished CTA #4 (2117,0), 5 CTAs running
GPGPU-Sim uArch: core:  2, cta: 4 initialized @(2118,0)
GPGPU-Sim uArch: Shader 11 finished CTA #4 (2125,0), 5 CTAs running
GPGPU-Sim uArch: core: 11, cta: 4 initialized @(2126,0)
GPGPU-Sim uArch: Shader 9 finished CTA #1 (2127,0), 5 CTAs running
GPGPU-Sim uArch: core:  9, cta: 1 initialized @(2128,0)
GPGPU-Sim uArch: Shader 13 finished CTA #4 (2130,0), 5 CTAs running
GPGPU-Sim uArch: core: 13, cta: 4 initialized @(2131,0)
GPGPU-Sim uArch: Shader 0 finished CTA #0 (2137,0), 5 CTAs running
GPGPU-Sim uArch: core:  0, cta: 0 initialized @(2138,0)
GPGPU-Sim uArch: Shader 7 finished CTA #2 (2142,0), 5 CTAs running
GPGPU-Sim uArch: core:  7, cta: 2 initialized @(2143,0)
GPGPU-Sim uArch: Shader 6 finished CTA #0 (2143,0), 5 CTAs running
GPGPU-Sim uArch: core:  6, cta: 0 initialized @(2144,0)
GPGPU-Sim uArch: Shader 0 finished CTA #3 (2151,0), 5 CTAs running
GPGPU-Sim uArch: core:  0, cta: 3 initialized @(2152,0)
GPGPU-Sim uArch: Shader 7 finished CTA #5 (2166,0), 5 CTAs running
GPGPU-Sim uArch: core:  7, cta: 5 initialized @(2167,0)
GPGPU-Sim uArch: Shader 11 finished CTA #5 (2183,0), 5 CTAs running
GPGPU-Sim uArch: core: 11, cta: 5 initialized @(2184,0)
GPGPU-Sim uArch: Shader 14 finished CTA #1 (2202,0), 5 CTAs running
GPGPU-Sim uArch: core: 14, cta: 1 initialized @(2203,0)
GPGPU-Sim uArch: Shader 1 finished CTA #2 (2204,0), 5 CTAs running
GPGPU-Sim uArch: core:  1, cta: 2 initialized @(2205,0)
GPGPU-Sim uArch: Shader 0 finished CTA #2 (2211,0), 5 CTAs running
GPGPU-Sim uArch: core:  0, cta: 2 initialized @(2212,0)
GPGPU-Sim uArch: Shader 9 finished CTA #4 (2213,0), 5 CTAs running
GPGPU-Sim uArch: Shader 9 finished CTA #5 (2213,0), 4 CTAs running
GPGPU-Sim uArch: core:  9, cta: 4 initialized @(2214,0)
GPGPU-Sim uArch: Shader 5 finished CTA #4 (2214,0), 5 CTAs running
GPGPU-Sim uArch: core:  5, cta: 4 initialized @(2215,0)
GPGPU-Sim uArch: core:  9, cta: 5 initialized @(2215,0)
GPGPU-Sim uArch: Shader 2 finished CTA #2 (2215,0), 5 CTAs running
GPGPU-Sim uArch: core:  2, cta: 2 initialized @(2216,0)
GPGPU-Sim uArch: Shader 3 finished CTA #5 (2217,0), 5 CTAs running
GPGPU-Sim PTX: 800000 instructions simulated : ctaid=(220,0,0) tid=(203,0,0)
GPGPU-Sim uArch: core:  3, cta: 5 initialized @(2218,0)
GPGPU-Sim uArch: Shader 10 finished CTA #2 (2228,0), 5 CTAs running
GPGPU-Sim uArch: core: 10, cta: 2 initialized @(2229,0)
GPGPU-Sim uArch: Shader 13 finished CTA #1 (2230,0), 5 CTAs running
GPGPU-Sim uArch: core: 13, cta: 1 initialized @(2231,0)
GPGPU-Sim uArch: Shader 3 finished CTA #4 (2242,0), 5 CTAs running
GPGPU-Sim uArch: core:  3, cta: 4 initialized @(2243,0)
GPGPU-Sim uArch: Shader 10 finished CTA #5 (2244,0), 5 CTAs running
GPGPU-Sim uArch: core: 10, cta: 5 initialized @(2245,0)
GPGPU-Sim uArch: Shader 12 finished CTA #2 (2251,0), 5 CTAs running
GPGPU-Sim uArch: core: 12, cta: 2 initialized @(2252,0)
GPGPU-Sim uArch: Shader 13 finished CTA #5 (2252,0), 5 CTAs running
GPGPU-Sim uArch: core: 13, cta: 5 initialized @(2253,0)
GPGPU-Sim uArch: Shader 10 finished CTA #3 (2260,0), 5 CTAs running
GPGPU-Sim uArch: core: 10, cta: 3 initialized @(2261,0)
GPGPU-Sim uArch: Shader 2 finished CTA #5 (2270,0), 5 CTAs running
GPGPU-Sim uArch: core:  2, cta: 5 initialized @(2271,0)
GPGPU-Sim uArch: Shader 14 finished CTA #5 (2283,0), 5 CTAs running
GPGPU-Sim uArch: core: 14, cta: 5 initialized @(2284,0)
GPGPU-Sim uArch: Shader 8 finished CTA #3 (2287,0), 5 CTAs running
GPGPU-Sim uArch: core:  8, cta: 3 initialized @(2288,0)
GPGPU-Sim uArch: Shader 13 finished CTA #2 (2292,0), 5 CTAs running
GPGPU-Sim uArch: core: 13, cta: 2 initialized @(2293,0)
GPGPU-Sim uArch: Shader 1 finished CTA #5 (2298,0), 5 CTAs running
GPGPU-Sim uArch: core:  1, cta: 5 initialized @(2299,0)
GPGPU-Sim uArch: Shader 11 finished CTA #3 (2307,0), 5 CTAs running
GPGPU-Sim uArch: core: 11, cta: 3 initialized @(2308,0)
GPGPU-Sim uArch: Shader 3 finished CTA #0 (2316,0), 5 CTAs running
GPGPU-Sim uArch: core:  3, cta: 0 initialized @(2317,0)
GPGPU-Sim uArch: Shader 5 finished CTA #2 (2323,0), 5 CTAs running
GPGPU-Sim uArch: core:  5, cta: 2 initialized @(2324,0)
GPGPU-Sim uArch: Shader 4 finished CTA #4 (2326,0), 5 CTAs running
GPGPU-Sim uArch: core:  4, cta: 4 initialized @(2327,0)
GPGPU-Sim uArch: Shader 6 finished CTA #3 (2328,0), 5 CTAs running
GPGPU-Sim uArch: core:  6, cta: 3 initialized @(2329,0)
GPGPU-Sim uArch: Shader 13 finished CTA #0 (2332,0), 5 CTAs running
GPGPU-Sim uArch: core: 13, cta: 0 initialized @(2333,0)
GPGPU-Sim uArch: Shader 9 finished CTA #2 (2336,0), 5 CTAs running
GPGPU-Sim uArch: core:  9, cta: 2 initialized @(2337,0)
GPGPU-Sim uArch: Shader 14 finished CTA #3 (2349,0), 5 CTAs running
GPGPU-Sim uArch: core: 14, cta: 3 initialized @(2350,0)
GPGPU-Sim uArch: Shader 4 finished CTA #5 (2350,0), 5 CTAs running
GPGPU-Sim uArch: Shader 7 finished CTA #0 (2351,0), 5 CTAs running
GPGPU-Sim uArch: Shader 2 finished CTA #0 (2352,0), 5 CTAs running
GPGPU-Sim uArch: Shader 11 finished CTA #2 (2374,0), 5 CTAs running
GPGPU-Sim uArch: Shader 14 finished CTA #2 (2374,0), 5 CTAs running
GPGPU-Sim PTX: 900000 instructions simulated : ctaid=(243,0,0) tid=(167,0,0)
GPGPU-Sim uArch: Shader 5 finished CTA #0 (2383,0), 5 CTAs running
GPGPU-Sim uArch: Shader 0 finished CTA #1 (2385,0), 5 CTAs running
GPGPU-Sim uArch: Shader 1 finished CTA #1 (2392,0), 5 CTAs running
GPGPU-Sim uArch: Shader 8 finished CTA #0 (2396,0), 5 CTAs running
GPGPU-Sim uArch: Shader 12 finished CTA #3 (2406,0), 5 CTAs running
GPGPU-Sim uArch: Shader 0 finished CTA #4 (2414,0), 4 CTAs running
GPGPU-Sim uArch: Shader 4 finished CTA #3 (2418,0), 4 CTAs running
GPGPU-Sim uArch: Shader 12 finished CTA #1 (2419,0), 4 CTAs running
GPGPU-Sim uArch: Shader 9 finished CTA #3 (2422,0), 5 CTAs running
GPGPU-Sim uArch: Shader 8 finished CTA #2 (2428,0), 4 CTAs running
GPGPU-Sim uArch: Shader 11 finished CTA #0 (2445,0), 4 CTAs running
GPGPU-Sim uArch: Shader 5 finished CTA #1 (2448,0), 4 CTAs running
GPGPU-Sim uArch: Shader 3 finished CTA #3 (2453,0), 5 CTAs running
GPGPU-Sim uArch: Shader 10 finished CTA #1 (2461,0), 5 CTAs running
GPGPU-Sim uArch: Shader 7 finished CTA #4 (2465,0), 4 CTAs running
GPGPU-Sim uArch: Shader 8 finished CTA #5 (2468,0), 3 CTAs running
GPGPU-Sim uArch: Shader 6 finished CTA #4 (2469,0), 5 CTAs running
GPGPU-Sim uArch: Shader 14 finished CTA #0 (2475,0), 4 CTAs running
GPGPU-Sim uArch: Shader 7 finished CTA #3 (2477,0), 3 CTAs running
GPGPU-Sim uArch: Shader 8 finished CTA #4 (2494,0), 2 CTAs running
GPGPU-Sim uArch: cycles simulated: 2500  inst.: 857237 (ipc=342.9) sim_rate=214309 (inst/sec) elapsed = 0:0:00:04 / Sun Feb 28 21:45:00 2016
GPGPU-Sim uArch: Shader 14 finished CTA #4 (2500,0), 3 CTAs running
GPGPU-Sim uArch: Shader 9 finished CTA #0 (2501,0), 4 CTAs running
GPGPU-Sim uArch: Shader 2 finished CTA #3 (2504,0), 4 CTAs running
GPGPU-Sim uArch: Shader 5 finished CTA #5 (2504,0), 3 CTAs running
GPGPU-Sim uArch: Shader 0 finished CTA #5 (2505,0), 3 CTAs running
GPGPU-Sim uArch: Shader 7 finished CTA #1 (2516,0), 2 CTAs running
GPGPU-Sim uArch: Shader 1 finished CTA #3 (2524,0), 4 CTAs running
GPGPU-Sim uArch: Shader 4 finished CTA #0 (2530,0), 3 CTAs running
GPGPU-Sim uArch: Shader 3 finished CTA #1 (2536,0), 4 CTAs running
GPGPU-Sim uArch: Shader 12 finished CTA #5 (2546,0), 3 CTAs running
GPGPU-Sim uArch: Shader 3 finished CTA #2 (2549,0), 3 CTAs running
GPGPU-Sim uArch: Shader 5 finished CTA #3 (2559,0), 2 CTAs running
GPGPU-Sim uArch: Shader 6 finished CTA #0 (2566,0), 4 CTAs running
GPGPU-Sim uArch: Shader 2 finished CTA #1 (2569,0), 3 CTAs running
GPGPU-Sim uArch: Shader 10 finished CTA #0 (2573,0), 4 CTAs running
GPGPU-Sim uArch: Shader 8 finished CTA #1 (2577,0), 1 CTAs running
GPGPU-Sim uArch: Shader 14 finished CTA #1 (2596,0), 2 CTAs running
GPGPU-Sim uArch: Shader 6 finished CTA #5 (2601,0), 3 CTAs running
GPGPU-Sim uArch: Shader 6 finished CTA #2 (2612,0), 2 CTAs running
GPGPU-Sim uArch: Shader 1 finished CTA #2 (2627,0), 3 CTAs running
GPGPU-Sim uArch: Shader 1 finished CTA #4 (2630,0), 2 CTAs running
GPGPU-Sim uArch: Shader 11 finished CTA #5 (2631,0), 3 CTAs running
GPGPU-Sim uArch: Shader 7 finished CTA #5 (2632,0), 1 CTAs running
GPGPU-Sim uArch: Shader 12 finished CTA #2 (2639,0), 2 CTAs running
GPGPU-Sim uArch: Shader 0 finished CTA #3 (2642,0), 2 CTAs running
GPGPU-Sim uArch: Shader 4 finished CTA #1 (2645,0), 2 CTAs running
GPGPU-Sim uArch: Shader 11 finished CTA #1 (2650,0), 2 CTAs running
GPGPU-Sim uArch: Shader 13 finished CTA #3 (2651,0), 5 CTAs running
GPGPU-Sim uArch: Shader 4 finished CTA #2 (2656,0), 1 CTAs running
GPGPU-Sim uArch: Shader 3 finished CTA #4 (2679,0), 2 CTAs running
GPGPU-Sim uArch: Shader 13 finished CTA #1 (2688,0), 4 CTAs running
GPGPU-Sim uArch: Shader 10 finished CTA #4 (2691,0), 3 CTAs running
GPGPU-Sim uArch: Shader 10 finished CTA #2 (2710,0), 2 CTAs running
GPGPU-Sim uArch: Shader 4 finished CTA #4 (2716,0), 0 CTAs running
GPGPU-Sim uArch: Shader 4 empty (release kernel 1 '_Z6KernelP4NodePiPbS2_S1_S2_i').
GPGPU-Sim uArch: Shader 5 finished CTA #2 (2716,0), 1 CTAs running
GPGPU-Sim uArch: Shader 6 finished CTA #3 (2722,0), 1 CTAs running
GPGPU-Sim uArch: Shader 3 finished CTA #0 (2729,0), 1 CTAs running
GPGPU-Sim uArch: Shader 6 finished CTA #1 (2733,0), 0 CTAs running
GPGPU-Sim uArch: Shader 6 empty (release kernel 1 '_Z6KernelP4NodePiPbS2_S1_S2_i').
GPGPU-Sim uArch: Shader 13 finished CTA #5 (2735,0), 3 CTAs running
GPGPU-Sim uArch: Shader 9 finished CTA #1 (2741,0), 3 CTAs running
GPGPU-Sim uArch: Shader 11 finished CTA #3 (2747,0), 1 CTAs running
GPGPU-Sim uArch: Shader 2 finished CTA #4 (2748,0), 2 CTAs running
GPGPU-Sim uArch: Shader 10 finished CTA #5 (2752,0), 1 CTAs running
GPGPU-Sim uArch: Shader 12 finished CTA #0 (2756,0), 1 CTAs running
GPGPU-Sim uArch: Shader 13 finished CTA #4 (2759,0), 2 CTAs running
GPGPU-Sim uArch: Shader 7 finished CTA #2 (2760,0), 0 CTAs running
GPGPU-Sim uArch: Shader 7 empty (release kernel 1 '_Z6KernelP4NodePiPbS2_S1_S2_i').
GPGPU-Sim uArch: Shader 12 finished CTA #4 (2768,0), 0 CTAs running
GPGPU-Sim uArch: Shader 12 empty (release kernel 1 '_Z6KernelP4NodePiPbS2_S1_S2_i').
GPGPU-Sim uArch: Shader 5 finished CTA #4 (2777,0), 0 CTAs running
GPGPU-Sim uArch: Shader 5 empty (release kernel 1 '_Z6KernelP4NodePiPbS2_S1_S2_i').
GPGPU-Sim uArch: Shader 11 finished CTA #4 (2789,0), 0 CTAs running
GPGPU-Sim uArch: Shader 11 empty (release kernel 1 '_Z6KernelP4NodePiPbS2_S1_S2_i').
GPGPU-Sim uArch: Shader 0 finished CTA #2 (2790,0), 1 CTAs running
GPGPU-Sim uArch: Shader 8 finished CTA #3 (2795,0), 0 CTAs running
GPGPU-Sim uArch: Shader 8 empty (release kernel 1 '_Z6KernelP4NodePiPbS2_S1_S2_i').
GPGPU-Sim uArch: Shader 13 finished CTA #0 (2801,0), 1 CTAs running
GPGPU-Sim uArch: Shader 0 finished CTA #0 (2802,0), 0 CTAs running
GPGPU-Sim uArch: Shader 0 empty (release kernel 1 '_Z6KernelP4NodePiPbS2_S1_S2_i').
GPGPU-Sim uArch: Shader 14 finished CTA #5 (2813,0), 1 CTAs running
GPGPU-Sim uArch: Shader 10 finished CTA #3 (2821,0), 0 CTAs running
GPGPU-Sim uArch: Shader 10 empty (release kernel 1 '_Z6KernelP4NodePiPbS2_S1_S2_i').
GPGPU-Sim uArch: Shader 9 finished CTA #4 (2827,0), 2 CTAs running
GPGPU-Sim uArch: Shader 3 finished CTA #5 (2832,0), 0 CTAs running
GPGPU-Sim uArch: Shader 3 empty (release kernel 1 '_Z6KernelP4NodePiPbS2_S1_S2_i').
GPGPU-Sim uArch: Shader 2 finished CTA #2 (2837,0), 1 CTAs running
GPGPU-Sim uArch: Shader 9 finished CTA #5 (2846,0), 1 CTAs running
GPGPU-Sim uArch: Shader 9 finished CTA #2 (2857,0), 0 CTAs running
GPGPU-Sim uArch: Shader 9 empty (release kernel 1 '_Z6KernelP4NodePiPbS2_S1_S2_i').
GPGPU-Sim uArch: Shader 2 finished CTA #5 (2861,0), 0 CTAs running
GPGPU-Sim uArch: Shader 2 empty (release kernel 1 '_Z6KernelP4NodePiPbS2_S1_S2_i').
GPGPU-Sim uArch: Shader 1 finished CTA #5 (2869,0), 1 CTAs running
GPGPU-Sim uArch: Shader 13 finished CTA #2 (2873,0), 0 CTAs running
GPGPU-Sim uArch: Shader 13 empty (release kernel 1 '_Z6KernelP4NodePiPbS2_S1_S2_i').
GPGPU-Sim uArch: Shader 14 finished CTA #3 (2897,0), 0 CTAs running
GPGPU-Sim uArch: Shader 14 empty (release kernel 1 '_Z6KernelP4NodePiPbS2_S1_S2_i').
GPGPU-Sim uArch: Shader 1 finished CTA #0 (6242,0), 0 CTAs running
GPGPU-Sim uArch: Shader 1 empty (release kernel 1 '_Z6KernelP4NodePiPbS2_S1_S2_i').
GPGPU-Sim uArch: GPU detected kernel '_Z6KernelP4NodePiPbS2_S1_S2_i' finished on shader 1.
kernel_name = _Z6KernelP4NodePiPbS2_S1_S2_i 
kernel_launch_uid = 1 
gpu_sim_cycle = 6243
gpu_sim_insn = 917736
gpu_ipc =     147.0024
gpu_tot_sim_cycle = 6243
gpu_tot_sim_insn = 917736
gpu_tot_ipc =     147.0024
gpu_tot_issued_cta = 256
gpu_stall_dramfull = 351
gpu_stall_icnt2sh    = 149
gpu_total_sim_rate=229434

========= Core cache stats =========
L1I_cache:
	L1I_total_cache_accesses = 18559
	L1I_total_cache_misses = 941
	L1I_total_cache_miss_rate = 0.0507
	L1I_total_cache_pending_hits = 0
	L1I_total_cache_reservation_fails = 4607
L1D_cache:
	L1D_cache_core[0]: Access = 120, Miss = 30, Miss_rate = 0.250, Pending_hits = 90, Reservation_fails = 0
	L1D_cache_core[1]: Access = 196, Miss = 68, Miss_rate = 0.347, Pending_hits = 96, Reservation_fails = 0
	L1D_cache_core[2]: Access = 144, Miss = 36, Miss_rate = 0.250, Pending_hits = 108, Reservation_fails = 0
	L1D_cache_core[3]: Access = 152, Miss = 38, Miss_rate = 0.250, Pending_hits = 114, Reservation_fails = 0
	L1D_cache_core[4]: Access = 136, Miss = 34, Miss_rate = 0.250, Pending_hits = 102, Reservation_fails = 0
	L1D_cache_core[5]: Access = 144, Miss = 36, Miss_rate = 0.250, Pending_hits = 108, Reservation_fails = 0
	L1D_cache_core[6]: Access = 136, Miss = 34, Miss_rate = 0.250, Pending_hits = 102, Reservation_fails = 0
	L1D_cache_core[7]: Access = 120, Miss = 30, Miss_rate = 0.250, Pending_hits = 90, Reservation_fails = 0
	L1D_cache_core[8]: Access = 128, Miss = 32, Miss_rate = 0.250, Pending_hits = 96, Reservation_fails = 0
	L1D_cache_core[9]: Access = 136, Miss = 34, Miss_rate = 0.250, Pending_hits = 102, Reservation_fails = 0
	L1D_cache_core[10]: Access = 144, Miss = 36, Miss_rate = 0.250, Pending_hits = 108, Reservation_fails = 0
	L1D_cache_core[11]: Access = 136, Miss = 34, Miss_rate = 0.250, Pending_hits = 102, Reservation_fails = 0
	L1D_cache_core[12]: Access = 136, Miss = 34, Miss_rate = 0.250, Pending_hits = 102, Reservation_fails = 0
	L1D_cache_core[13]: Access = 144, Miss = 36, Miss_rate = 0.250, Pending_hits = 108, Reservation_fails = 0
	L1D_cache_core[14]: Access = 144, Miss = 36, Miss_rate = 0.250, Pending_hits = 108, Reservation_fails = 0
	L1D_total_cache_accesses = 2116
	L1D_total_cache_misses = 548
	L1D_total_cache_miss_rate = 0.2590
	L1D_total_cache_pending_hits = 1536
	L1D_total_cache_reservation_fails = 0
	L1D_cache_data_port_util = 0.001
	L1D_cache_fill_port_util = 0.011
L1C_cache:
	L1C_total_cache_accesses = 4115
	L1C_total_cache_misses = 480
	L1C_total_cache_miss_rate = 0.1166
	L1C_total_cache_pending_hits = 0
	L1C_total_cache_reservation_fails = 3742
L1T_cache:
	L1T_total_cache_accesses = 0
	L1T_total_cache_misses = 0
	L1T_total_cache_pending_hits = 0
	L1T_total_cache_reservation_fails = 0

Total_core_cache_stats:
	Total_core_cache_stats_breakdown[GLOBAL_ACC_R][HIT] = 31
	Total_core_cache_stats_breakdown[GLOBAL_ACC_R][HIT_RESERVED] = 1536
	Total_core_cache_stats_breakdown[GLOBAL_ACC_R][MISS] = 523
	Total_core_cache_stats_breakdown[CONST_ACC_R][HIT] = 3635
	Total_core_cache_stats_breakdown[CONST_ACC_R][MISS] = 480
	Total_core_cache_stats_breakdown[CONST_ACC_R][RESERVATION_FAIL] = 3742
	Total_core_cache_stats_breakdown[GLOBAL_ACC_W][HIT] = 1
	Total_core_cache_stats_breakdown[GLOBAL_ACC_W][MISS] = 25
	Total_core_cache_stats_breakdown[INST_ACC_R][HIT] = 17618
	Total_core_cache_stats_breakdown[INST_ACC_R][MISS] = 941
	Total_core_cache_stats_breakdown[INST_ACC_R][RESERVATION_FAIL] = 4607
Shader 0 warp_id issue ditsribution:
warp_id:
0, 1, 2, 3, 4, 5, 6, 7, 8, 9, 10, 11, 12, 13, 14, 15, 16, 17, 18, 19, 20, 21, 22, 23, 24, 25, 26, 27, 28, 29, 30, 31, 32, 33, 34, 35, 36, 37, 38, 39, 40, 41, 42, 43, 44, 45, 46, 47, 
distro:
45, 45, 45, 45, 45, 45, 45, 45, 30, 30, 30, 30, 30, 30, 30, 30, 45, 45, 45, 45, 45, 45, 45, 45, 45, 45, 45, 45, 45, 45, 45, 45, 30, 30, 30, 30, 30, 30, 30, 30, 30, 30, 30, 30, 30, 30, 30, 30, 
gpgpu_n_tot_thrd_icount = 990816
gpgpu_n_tot_w_icount = 30963
gpgpu_n_stall_shd_mem = 3742
gpgpu_n_mem_read_local = 0
gpgpu_n_mem_write_local = 0
gpgpu_n_mem_read_global = 523
gpgpu_n_mem_write_global = 26
gpgpu_n_mem_texture = 0
gpgpu_n_mem_const = 15
gpgpu_n_load_insn  = 65578
gpgpu_n_store_insn = 26
gpgpu_n_shmem_insn = 0
gpgpu_n_tex_insn = 0
gpgpu_n_const_mem_insn = 0
gpgpu_n_param_mem_insn = 131091
gpgpu_n_shmem_bkconflict = 0
gpgpu_n_cache_bkconflict = 0
gpgpu_n_intrawarp_mshr_merge = 0
gpgpu_n_cmem_portconflict = 3742
gpgpu_stall_shd_mem[c_mem][bk_conf] = 3742
gpgpu_stall_shd_mem[c_mem][mshr_rc] = 0
gpgpu_stall_shd_mem[c_mem][icnt_rc] = 0
gpgpu_stall_shd_mem[c_mem][data_port_stall] = 0
gpgpu_stall_shd_mem[t_mem][mshr_rc] = 0
gpgpu_stall_shd_mem[t_mem][icnt_rc] = 0
gpgpu_stall_shd_mem[t_mem][data_port_stall] = 0
gpgpu_stall_shd_mem[s_mem][bk_conf] = 0
gpgpu_stall_shd_mem[gl_mem][bk_conf] = 0
gpgpu_stall_shd_mem[gl_mem][coal_stall] = 0
gpgpu_stall_shd_mem[gl_mem][data_port_stall] = 0
gpgpu_stall_shd_mem[g_mem_ld][mshr_rc] = 0
gpgpu_stall_shd_mem[g_mem_ld][icnt_rc] = 0
gpgpu_stall_shd_mem[g_mem_ld][wb_icnt_rc] = 0
gpgpu_stall_shd_mem[g_mem_ld][wb_rsrv_fail] = 0
gpgpu_stall_shd_mem[g_mem_st][mshr_rc] = 0
gpgpu_stall_shd_mem[g_mem_st][icnt_rc] = 0
gpgpu_stall_shd_mem[g_mem_st][wb_icnt_rc] = 0
gpgpu_stall_shd_mem[g_mem_st][wb_rsrv_fail] = 0
gpgpu_stall_shd_mem[l_mem_ld][mshr_rc] = 0
gpgpu_stall_shd_mem[l_mem_ld][icnt_rc] = 0
gpgpu_stall_shd_mem[l_mem_ld][wb_icnt_rc] = 0
gpgpu_stall_shd_mem[l_mem_ld][wb_rsrv_fail] = 0
gpgpu_stall_shd_mem[l_mem_st][mshr_rc] = 0
gpgpu_stall_shd_mem[l_mem_st][icnt_rc] = 0
gpgpu_stall_shd_mem[l_mem_ld][wb_icnt_rc] = 0
gpgpu_stall_shd_mem[l_mem_ld][wb_rsrv_fail] = 0
gpu_reg_bank_conflict_stalls = 0
Warp Occupancy Distribution:
Stall:8190	W0_Idle:14325	W0_Scoreboard:37598	W1:243	W2:0	W3:0	W4:0	W5:0	W6:0	W7:0	W8:0	W9:0	W10:0	W11:0	W12:0	W13:0	W14:0	W15:0	W16:0	W17:0	W18:0	W19:0	W20:0	W21:0	W22:0	W23:0	W24:0	W25:0	W26:0	W27:0	W28:0	W29:0	W30:0	W31:0	W32:30720
traffic_breakdown_coretomem[CONST_ACC_R] = 120 {8:15,}
traffic_breakdown_coretomem[GLOBAL_ACC_R] = 4184 {8:523,}
traffic_breakdown_coretomem[GLOBAL_ACC_W] = 1040 {40:26,}
traffic_breakdown_coretomem[INST_ACC_R] = 256 {8:32,}
traffic_breakdown_memtocore[CONST_ACC_R] = 1080 {72:15,}
traffic_breakdown_memtocore[GLOBAL_ACC_R] = 71128 {136:523,}
traffic_breakdown_memtocore[GLOBAL_ACC_W] = 208 {8:26,}
traffic_breakdown_memtocore[INST_ACC_R] = 4352 {136:32,}
maxmrqlatency = 400 
maxdqlatency = 0 
maxmflatency = 730 
averagemflatency = 413 
max_icnt2mem_latency = 36 
max_icnt2sh_latency = 6242 
mrq_lat_table:103 	1 	8 	8 	9 	18 	45 	48 	50 	0 	0 	0 	0 	0 	0 	0 	0 	0 	0 	0 	0 	0 	0 	0 	0 	0 	0 	0 	0 	0 	0 	0 	
dq_lat_table:0 	0 	0 	0 	0 	0 	0 	0 	0 	0 	0 	0 	0 	0 	0 	0 	0 	0 	0 	0 	0 	0 	0 	0 	0 	0 	0 	0 	0 	0 	0 	0 	
mf_lat_table:0 	0 	0 	0 	0 	0 	0 	25 	395 	144 	0 	0 	0 	0 	0 	0 	0 	0 	0 	0 	0 	0 	0 	0 	0 	0 	0 	0 	0 	0 	0 	0 	
icnt2mem_lat_table:0 	0 	0 	585 	8 	3 	0 	0 	0 	0 	0 	0 	0 	0 	0 	0 	0 	0 	0 	0 	0 	0 	0 	0 	
icnt2sh_lat_table:0 	0 	0 	258 	280 	0 	0 	0 	0 	0 	2 	9 	15 	0 	0 	0 	0 	0 	0 	0 	0 	0 	0 	0 	
mf_lat_pw_table:0 	0 	0 	0 	0 	0 	0 	6 	5 	0 	0 	0 	0 	0 	0 	0 	0 	0 	0 	0 	0 	0 	0 	0 	0 	0 	0 	0 	0 	0 	0 	0 	
maximum concurrent accesses to same row:
dram[0]:         1         0         0         0         0         0         0         0         0         0         0         0         0         0         0         0 
dram[1]:         0         0         0         0         0         0         0         0         0         0         0         0         0         0         0         0 
dram[2]:         0         0         0         0         0         0         0         0         0         0         0         0         0         0         0         0 
dram[3]:         0         0         0         0         0         0         0         0         0         0         0         0         0         0         0         0 
dram[4]:         0         0         0         0         0         0         0         0         0         0        11        11         0         0         0         0 
dram[5]:         0         0         0         0         0         0         0         0         0         0         0         0         0         0         0         0 
maximum service time to same row:
dram[0]:      2223         0      6224         0         0         0         0         0         0         0       994       965      1885      1872         0         0 
dram[1]:      1276         0         0         0         0         0         0         0         0         0      1003       972      1878      1894         0      4125 
dram[2]:         0         0         0      3184         0      1487         0         0         0      4491      1006       988      1885      1466         0         0 
dram[3]:         0         0         0      5354         0      4922         0         0         0         0      1013       972      1904      1876         0         0 
dram[4]:         0      4051         0         0         0      5785         0         0         0         0      1154      2628      1924      1897      3254         0 
dram[5]:         0         0         0         0         0         0         0         0         0         0       982      1001      1907      1904      5857         0 
average row accesses per activate:
dram[0]:  1.000000      -nan  2.000000      -nan      -nan      -nan      -nan      -nan      -nan      -nan 10.000000 11.000000 11.000000 11.000000      -nan      -nan 
dram[1]:  1.000000      -nan      -nan      -nan      -nan      -nan      -nan      -nan      -nan      -nan 10.000000 11.000000 13.000000 11.000000      -nan  3.000000 
dram[2]:      -nan      -nan      -nan  2.000000      -nan  1.000000      -nan      -nan      -nan  2.000000 10.000000 11.000000 11.000000 12.000000      -nan      -nan 
dram[3]:      -nan      -nan      -nan  2.000000      -nan  2.000000      -nan      -nan      -nan      -nan 10.000000 11.000000 11.000000 10.000000      -nan      -nan 
dram[4]:      -nan  2.000000      -nan      -nan      -nan  2.000000      -nan      -nan      -nan      -nan  4.666667  6.500000 11.000000 10.000000  2.000000      -nan 
dram[5]:      -nan      -nan      -nan      -nan      -nan      -nan      -nan      -nan      -nan      -nan 11.000000 11.000000 11.000000 10.000000  1.000000      -nan 
average row locality = 290/42 = 6.904762
number of total memory accesses made:
dram[0]:         0         0         0         0         0         0         0         0         0         0         0         0         0         0         0         0 
dram[1]:         0         0         0         0         0         0         0         0         0         0         0         0         0         0         0         0 
dram[2]:         0         0         0         0         0         0         0         0         0         0         0         0         0         0         0         0 
dram[3]:         0         0         0         0         0         0         0         0         0         0         0         0         0         0         0         0 
dram[4]:         0         0         0         0         0         0         0         0         0         0         0         0         0         0         0         0 
dram[5]:         0         0         0         0         0         0         0         0         0         0         0         0         0         0         0         0 
total accesses: 0
min_bank_accesses = 0!
min_chip_accesses = 0!
number of total read accesses:
dram[0]:         3         0         1         0         0         0         0         0         0         0        10        11        11        11         0         0 
dram[1]:         1         0         0         0         0         0         0         0         0         0        10        11        13        11         0         3 
dram[2]:         0         0         0         1         0         1         0         0         0         1        10        11        11        11         0         0 
dram[3]:         0         0         0         1         0         1         0         0         0         0        10        11        11        10         0         0 
dram[4]:         0         1         0         0         0         1         0         0         0         0        13        12        11        10         2         0 
dram[5]:         0         0         0         0         0         0         0         0         0         0        11        11        11        10         1         0 
total reads: 280
min_bank_accesses = 0!
chip skew: 50/44 = 1.14
number of total write accesses:
dram[0]:         0         0         1         0         0         0         0         0         0         0         0         0         0         0         0         0 
dram[1]:         0         0         0         0         0         0         0         0         0         0         0         0         0         0         0         0 
dram[2]:         0         0         0         1         0         0         0         0         0         1         0         0         0         1         0         0 
dram[3]:         0         0         0         1         0         1         0         0         0         0         0         0         0         0         0         0 
dram[4]:         0         1         0         0         0         1         0         0         0         0         1         1         0         0         0         0 
dram[5]:         0         0         0         0         0         0         0         0         0         0         0         0         0         0         0         0 
total reads: 10
min_bank_accesses = 0!
min_chip_accesses = 0!
average mf latency per bank:
dram[0]:       1558    none         126    none      none      none      none      none      none      none         702      1026       765       961    none      none  
dram[1]:          0    none      none      none      none      none      none      none      none      none         692      1017       638      1026    none         294
dram[2]:     none      none      none         126    none         312    none      none      none         125       694      1027       723       796    none      none  
dram[3]:     none      none      none         126    none         126    none      none      none      none         708      1061       721       987    none      none  
dram[4]:     none         125    none      none      none         126    none      none      none      none         653       906       746      1045       295    none  
dram[5]:     none      none      none      none      none      none      none      none      none      none         671      1073       710      1031       299    none  
maximum mf latency per bank:
dram[0]:        312         0       252         0         0         0         0         0         0         0       405       680       505       648         0         0
dram[1]:          0         0         0         0         0         0         0         0         0         0       416       655       435       625         0       300
dram[2]:          0         0         0       252         0       312         0         0         0       251       415       680       468       589         0         0
dram[3]:          0         0         0       252         0       252         0         0         0         0       407       671       463       713         0         0
dram[4]:          0       251         0         0         0       252         0         0         0         0       405       691       551       730       300         0
dram[5]:          0         0         0         0         0         0         0         0         0         0       403       683       474       669       299         0

Number of Memory Banks Accessed per Memory Operation per Warp (from 0):
0	0	0	0	0	0	0	0	0	0	0	0	0	0	0	0	0	0	0	0	0	0	0	0	0	0	0	0	0	0	0	0	0	0	0	0	0	0	0	0	0	0	0	0	0	0	0	0	0	0	0	0	0	0	0	0	0	0	0	0	0	0	0	0	0	0	0	0	0	0	0	0	0	0	0	0	0	0	0	0	0	0	0	0	0	0	0	0	0	0	0	0	0	0	0	0	
Average # of Memory Banks Accessed per Memory Operation per Warp=-nan

position of mrq chosen
0	0	0	0	0	0	0	0	0	0	0	0	0	0	0	0	

average position of mrq chosen = -nan
Memory Partition 0: 
Cache L2_bank_000:
MSHR contents
MSHR: tag=0x80234400, atomic=0 1 entries : 0x7f2733c168b0 :  mf: uid= 33149, sid01:w00, part=0, addr=0x80234440, load , size=32, unknown  status = IN_PARTITION_DRAM (6242), 

Cache L2_bank_001:
MSHR contents

In Dram Latency Queue (total = 0): 
DRAM[0]: 16 bks, busW=4 BL=8 CL=12, tRRD=2 tCCD=6, tRCD=12 tRAS=28 tRP=12 tRC=40
n_cmd=8240 n_nop=7490 n_act=8 n_pre=2 n_req=48 n_rd=739 n_write=1 bw_util=0.1796
n_activity=2350 dram_eff=0.6298
bk0: 48a 8041i bk1: 0a 8237i bk2: 3a 8214i bk3: 0a 8238i bk4: 0a 8240i bk5: 0a 8240i bk6: 0a 8241i bk7: 0a 8241i bk8: 0a 8241i bk9: 0a 8242i bk10: 160a 7676i bk11: 176a 7212i bk12: 176a 7512i bk13: 176a 7083i bk14: 0a 8238i bk15: 0a 8240i 
dram_util_bins: 0 0 0 0 0 0 0 0 0 0
dram_eff_bins: 0 0 0 0 0 0 0 0 0 0
mrqq: max=9 avg=0.805825
Memory Partition 1: 
Cache L2_bank_002:
MSHR contents

Cache L2_bank_003:
MSHR contents

In Dram Latency Queue (total = 0): 
DRAM[1]: 16 bks, busW=4 BL=8 CL=12, tRRD=2 tCCD=6, tRCD=12 tRAS=28 tRP=12 tRC=40
n_cmd=8240 n_nop=7450 n_act=6 n_pre=0 n_req=49 n_rd=784 n_write=0 bw_util=0.1903
n_activity=2407 dram_eff=0.6514
bk0: 16a 8164i bk1: 0a 8238i bk2: 0a 8238i bk3: 0a 8239i bk4: 0a 8239i bk5: 0a 8239i bk6: 0a 8239i bk7: 0a 8241i bk8: 0a 8241i bk9: 0a 8243i bk10: 160a 7739i bk11: 176a 7238i bk12: 208a 7414i bk13: 176a 6990i bk14: 0a 8240i bk15: 48a 8090i 
dram_util_bins: 0 0 0 0 0 0 0 0 0 0
dram_eff_bins: 0 0 0 0 0 0 0 0 0 0
mrqq: max=9 avg=0.799636
Memory Partition 2: 
Cache L2_bank_004:
MSHR contents

Cache L2_bank_005:
MSHR contents

In Dram Latency Queue (total = 0): 
DRAM[2]: 16 bks, busW=4 BL=8 CL=12, tRRD=2 tCCD=6, tRCD=12 tRAS=28 tRP=12 tRC=40
n_cmd=8240 n_nop=7494 n_act=7 n_pre=0 n_req=49 n_rd=736 n_write=3 bw_util=0.1794
n_activity=2287 dram_eff=0.6463
bk0: 0a 8239i bk1: 0a 8240i bk2: 0a 8240i bk3: 16a 8176i bk4: 0a 8239i bk5: 16a 8166i bk6: 0a 8240i bk7: 0a 8242i bk8: 0a 8242i bk9: 16a 8178i bk10: 160a 7681i bk11: 176a 7219i bk12: 176a 7483i bk13: 176a 6988i bk14: 0a 8238i bk15: 0a 8238i 
dram_util_bins: 0 0 0 0 0 0 0 0 0 0
dram_eff_bins: 0 0 0 0 0 0 0 0 0 0
mrqq: max=9 avg=0.733131
Memory Partition 3: 
Cache L2_bank_006:
MSHR contents

Cache L2_bank_007:
MSHR contents

In Dram Latency Queue (total = 0): 
DRAM[3]: 16 bks, busW=4 BL=8 CL=12, tRRD=2 tCCD=6, tRCD=12 tRAS=28 tRP=12 tRC=40
n_cmd=8240 n_nop=7528 n_act=6 n_pre=0 n_req=46 n_rd=704 n_write=2 bw_util=0.1714
n_activity=2205 dram_eff=0.6404
bk0: 0a 8240i bk1: 0a 8241i bk2: 0a 8242i bk3: 16a 8177i bk4: 0a 8240i bk5: 16a 8175i bk6: 0a 8238i bk7: 0a 8239i bk8: 0a 8240i bk9: 0a 8241i bk10: 160a 7677i bk11: 176a 7224i bk12: 176a 7524i bk13: 160a 7073i bk14: 0a 8237i bk15: 0a 8238i 
dram_util_bins: 0 0 0 0 0 0 0 0 0 0
dram_eff_bins: 0 0 0 0 0 0 0 0 0 0
mrqq: max=9 avg=0.755947
Memory Partition 4: 
Cache L2_bank_008:
MSHR contents

Cache L2_bank_009:
MSHR contents

In Dram Latency Queue (total = 0): 
DRAM[4]: 16 bks, busW=4 BL=8 CL=12, tRRD=2 tCCD=6, tRCD=12 tRAS=28 tRP=12 tRC=40
n_cmd=8240 n_nop=7423 n_act=10 n_pre=3 n_req=54 n_rd=800 n_write=4 bw_util=0.1951
n_activity=2574 dram_eff=0.6247
bk0: 0a 8239i bk1: 16a 8176i bk2: 0a 8239i bk3: 0a 8239i bk4: 0a 8239i bk5: 16a 8176i bk6: 0a 8241i bk7: 0a 8242i bk8: 0a 8244i bk9: 0a 8244i bk10: 208a 7386i bk11: 192a 7119i bk12: 176a 7445i bk13: 160a 7035i bk14: 32a 8131i bk15: 0a 8236i 
dram_util_bins: 0 0 0 0 0 0 0 0 0 0
dram_eff_bins: 0 0 0 0 0 0 0 0 0 0
mrqq: max=9 avg=0.842476
Memory Partition 5: 
Cache L2_bank_010:
MSHR contents

Cache L2_bank_011:
MSHR contents

In Dram Latency Queue (total = 0): 
DRAM[5]: 16 bks, busW=4 BL=8 CL=12, tRRD=2 tCCD=6, tRCD=12 tRAS=28 tRP=12 tRC=40
n_cmd=8240 n_nop=7531 n_act=5 n_pre=0 n_req=44 n_rd=704 n_write=0 bw_util=0.1709
n_activity=2172 dram_eff=0.6483
bk0: 0a 8238i bk1: 0a 8239i bk2: 0a 8239i bk3: 0a 8240i bk4: 0a 8240i bk5: 0a 8241i bk6: 0a 8241i bk7: 0a 8241i bk8: 0a 8241i bk9: 0a 8241i bk10: 176a 7657i bk11: 176a 7179i bk12: 176a 7481i bk13: 160a 7082i bk14: 16a 8180i bk15: 0a 8237i 
dram_util_bins: 0 0 0 0 0 0 0 0 0 0
dram_eff_bins: 0 0 0 0 0 0 0 0 0 0
mrqq: max=10 avg=0.820874

========= L2 cache stats =========
L2_cache_bank[0]: Access = 77, Miss = 25, Miss_rate = 0.325, Pending_hits = 27, Reservation_fails = 284
L2_cache_bank[1]: Access = 44, Miss = 22, Miss_rate = 0.500, Pending_hits = 22, Reservation_fails = 0
L2_cache_bank[2]: Access = 61, Miss = 24, Miss_rate = 0.393, Pending_hits = 24, Reservation_fails = 143
L2_cache_bank[3]: Access = 47, Miss = 25, Miss_rate = 0.532, Pending_hits = 22, Reservation_fails = 0
L2_cache_bank[4]: Access = 42, Miss = 21, Miss_rate = 0.500, Pending_hits = 21, Reservation_fails = 0
L2_cache_bank[5]: Access = 46, Miss = 25, Miss_rate = 0.543, Pending_hits = 21, Reservation_fails = 0
L2_cache_bank[6]: Access = 45, Miss = 21, Miss_rate = 0.467, Pending_hits = 21, Reservation_fails = 0
L2_cache_bank[7]: Access = 46, Miss = 23, Miss_rate = 0.500, Pending_hits = 21, Reservation_fails = 0
L2_cache_bank[8]: Access = 56, Miss = 26, Miss_rate = 0.464, Pending_hits = 22, Reservation_fails = 0
L2_cache_bank[9]: Access = 45, Miss = 24, Miss_rate = 0.533, Pending_hits = 21, Reservation_fails = 0
L2_cache_bank[10]: Access = 45, Miss = 23, Miss_rate = 0.511, Pending_hits = 22, Reservation_fails = 0
L2_cache_bank[11]: Access = 42, Miss = 21, Miss_rate = 0.500, Pending_hits = 21, Reservation_fails = 0
L2_total_cache_accesses = 596
L2_total_cache_misses = 280
L2_total_cache_miss_rate = 0.4698
L2_total_cache_pending_hits = 265
L2_total_cache_reservation_fails = 427
L2_total_cache_breakdown:
	L2_cache_stats_breakdown[GLOBAL_ACC_R][HIT_RESERVED] = 256
	L2_cache_stats_breakdown[GLOBAL_ACC_R][MISS] = 267
	L2_cache_stats_breakdown[CONST_ACC_R][HIT] = 11
	L2_cache_stats_breakdown[CONST_ACC_R][HIT_RESERVED] = 3
	L2_cache_stats_breakdown[CONST_ACC_R][MISS] = 1
	L2_cache_stats_breakdown[CONST_ACC_R][RESERVATION_FAIL] = 137
	L2_cache_stats_breakdown[GLOBAL_ACC_W][HIT] = 16
	L2_cache_stats_breakdown[GLOBAL_ACC_W][MISS] = 10
	L2_cache_stats_breakdown[INST_ACC_R][HIT] = 24
	L2_cache_stats_breakdown[INST_ACC_R][HIT_RESERVED] = 6
	L2_cache_stats_breakdown[INST_ACC_R][MISS] = 2
	L2_cache_stats_breakdown[INST_ACC_R][RESERVATION_FAIL] = 290
L2_cache_data_port_util = 0.002
L2_cache_fill_port_util = 0.119

icnt_total_pkts_mem_to_simt=2846
icnt_total_pkts_simt_to_mem=622
LD_mem_lat_dist  0 0 0 0 0 0 0 0 0 0 0 0 0 0 0 0 0 0 0 0 0 0 0 0 0 0 0
ST_mem_lat_dist  0 0 0 0 0 0 0 0 0 0 0 0 0 0 0 0 0 0 0 0 0 0 0 0 0 0 0
----------------------------Interconnect-DETAILS--------------------------------
Class 0:
Packet latency average = 9.70218
	minimum = 6
	maximum = 34
Network latency average = 8.65185
	minimum = 6
	maximum = 34
Slowest packet = 14
Flit latency average = 6.90542
	minimum = 6
	maximum = 34
Slowest flit = 14
Fragmentation average = 0
	minimum = 0
	maximum = 0
Injected packet rate average = 0.00707162
	minimum = 0.00528592 (at node 0)
	maximum = 0.0123338 (at node 15)
Accepted packet rate average = 0.00707162
	minimum = 0.00528592 (at node 0)
	maximum = 0.0123338 (at node 15)
Injected flit rate average = 0.0205742
	minimum = 0.00528592 (at node 0)
	maximum = 0.0549415 (at node 15)
Accepted flit rate average= 0.0205742
	minimum = 0.00672753 (at node 19)
	maximum = 0.0422874 (at node 1)
Injected packet length average = 2.9094
Accepted packet length average = 2.9094
Total in-flight flits = 0 (0 measured)
====== Overall Traffic Statistics ======
====== Traffic class 0 ======
Packet latency average = 9.70218 (1 samples)
	minimum = 6 (1 samples)
	maximum = 34 (1 samples)
Network latency average = 8.65185 (1 samples)
	minimum = 6 (1 samples)
	maximum = 34 (1 samples)
Flit latency average = 6.90542 (1 samples)
	minimum = 6 (1 samples)
	maximum = 34 (1 samples)
Fragmentation average = 0 (1 samples)
	minimum = 0 (1 samples)
	maximum = 0 (1 samples)
Injected packet rate average = 0.00707162 (1 samples)
	minimum = 0.00528592 (1 samples)
	maximum = 0.0123338 (1 samples)
Accepted packet rate average = 0.00707162 (1 samples)
	minimum = 0.00528592 (1 samples)
	maximum = 0.0123338 (1 samples)
Injected flit rate average = 0.0205742 (1 samples)
	minimum = 0.00528592 (1 samples)
	maximum = 0.0549415 (1 samples)
Accepted flit rate average = 0.0205742 (1 samples)
	minimum = 0.00672753 (1 samples)
	maximum = 0.0422874 (1 samples)
Injected packet size average = 2.9094 (1 samples)
Accepted packet size average = 2.9094 (1 samples)
Hops average = 1 (1 samples)
----------------------------END-of-Interconnect-DETAILS-------------------------


gpgpu_simulation_time = 0 days, 0 hrs, 0 min, 4 sec (4 sec)
gpgpu_simulation_rate = 229434 (inst/sec)
gpgpu_simulation_rate = 1560 (cycle/sec)
GPGPU-Sim: synchronize waiting for inactive GPU simulation
GPGPU-Sim API: Stream Manager State
GPGPU-Sim: detected inactive GPU simulation thread

GPGPU-Sim PTX: cudaLaunch for 0x0x405636 (mode=performance simulation) on stream 0
[...]
total reads: 2965
bank skew: 44/20 = 2.20
chip skew: 498/489 = 1.02
number of total write accesses:
dram[0]:        15        17        18        17        20        18        17        17        16        18         6         6         0         0         0         0 
dram[1]:        18        17        16        18        18        16        18        17        21        18         6         5         0         0         0         0 
dram[2]:        21        17        20        17        18        17        20        16        20        17         6         4         0         1         0         0 
dram[3]:        18        19        17        17        17        16        18        20        16        19         6         6         0         0         0         0 
dram[4]:        18        16        16        15        15        18        16        16        19        19         6         5         0         0         0         0 
dram[5]:        17        15        17        17        19        16        17        17        16        16         6         6         0         0         0         0 
total reads: 1114
min_bank_accesses = 0!
chip skew: 194/179 = 1.08
average mf latency per bank:
dram[0]:        941       832       906       973       922       924      1328      1249      1227      1243      2839      3098      4691      4976      5395      4269
dram[1]:        870       627       822       811       956       932       936       943      1001      1068      2714      3132      6479      6054      4150      4167
dram[2]:       1116       890      1066       971      1124      1070      1309      1216      1373      1036      3058      3289      4583      5047      4155      5339
dram[3]:        792       852      1084      1070       929      1332      1013      1292      1161      1095      2392      3084      5809      4292      4337      4446
dram[4]:       1079       830      1158       968      1136       938      1178      1080      1353      1124     40257      3130      5637      4868      6089      5685
dram[5]:        636       798       826       782       857       862      1376      1057      1292       979      2762      2998      5203      5801      4686      4412
maximum mf latency per bank:
dram[0]:       1658      1285      2183      1813      1430      1029      2425      2060      1201      1657       815       842      1097      1349       788      1681
dram[1]:        830       799       806      1836      1247      1702       767      1141      1292       797       666       731       609       625       711       718
dram[2]:       1925       908      1367      1220      3941      2199      2569      3191      2256       810      1061      1981       986      1252      1492      1899
dram[3]:        748      1346      1255      1236      2353      3626      1044      2293       770      1529       972      1194       926       769      1002       779
dram[4]:       1100      1113      1967      1019      1123      1795       795      1000       963      2243       906       691       787       856       895      1008
dram[5]:        916       741       822      1073       829       757      1388      1030       883       984       817       837       634       669       634       886

Number of Memory Banks Accessed per Memory Operation per Warp (from 0):
0	0	0	0	0	0	0	0	0	0	0	0	0	0	0	0	0	0	0	0	0	0	0	0	0	0	0	0	0	0	0	0	0	0	0	0	0	0	0	0	0	0	0	0	0	0	0	0	0	0	0	0	0	0	0	0	0	0	0	0	0	0	0	0	0	0	0	0	0	0	0	0	0	0	0	0	0	0	0	0	0	0	0	0	0	0	0	0	0	0	0	0	0	0	0	0	
Average # of Memory Banks Accessed per Memory Operation per Warp=-nan

position of mrq chosen
0	0	0	0	0	0	0	0	0	0	0	0	0	0	0	0	

average position of mrq chosen = -nan
Memory Partition 0: 
Cache L2_bank_000:
MSHR contents

Cache L2_bank_001:
MSHR contents

In Dram Latency Queue (total = 0): 
DRAM[0]: 16 bks, busW=4 BL=8 CL=12, tRRD=2 tCCD=6, tRCD=12 tRAS=28 tRP=12 tRC=40
n_cmd=57990 n_nop=49601 n_act=174 n_pre=158 n_req=677 n_rd=7872 n_write=185 bw_util=0.2779
n_activity=23847 dram_eff=0.6757
bk0: 400a 50722i bk1: 416a 53552i bk2: 496a 51066i bk3: 560a 49264i bk4: 560a 50920i bk5: 592a 51943i bk6: 592a 49294i bk7: 560a 46980i bk8: 528a 51564i bk9: 528a 49516i bk10: 400a 55920i bk11: 512a 53202i bk12: 432a 54836i bk13: 448a 53585i bk14: 368a 55254i bk15: 480a 53294i 
dram_util_bins: 0 0 0 0 0 0 0 0 0 0
dram_eff_bins: 0 0 0 0 0 0 0 0 0 0
mrqq: max=16 avg=2.71471
Memory Partition 1: 
Cache L2_bank_002:
MSHR contents

Cache L2_bank_003:
MSHR contents

In Dram Latency Queue (total = 0): 
DRAM[1]: 16 bks, busW=4 BL=8 CL=12, tRRD=2 tCCD=6, tRCD=12 tRAS=28 tRP=12 tRC=40
n_cmd=57990 n_nop=49621 n_act=186 n_pre=170 n_req=677 n_rd=7824 n_write=189 bw_util=0.2764
n_activity=24419 dram_eff=0.6563
bk0: 400a 52645i bk1: 400a 53679i bk2: 432a 54588i bk3: 512a 50446i bk4: 592a 52194i bk5: 592a 52342i bk6: 544a 52164i bk7: 704a 50440i bk8: 608a 51910i bk9: 560a 54471i bk10: 480a 54897i bk11: 464a 54862i bk12: 336a 56437i bk13: 336a 55940i bk14: 400a 55942i bk15: 464a 55213i 
dram_util_bins: 0 0 0 0 0 0 0 0 0 0
dram_eff_bins: 0 0 0 0 0 0 0 0 0 0
mrqq: max=16 avg=1.26294
Memory Partition 2: 
Cache L2_bank_004:
MSHR contents

Cache L2_bank_005:
MSHR contents

In Dram Latency Queue (total = 0): 
DRAM[2]: 16 bks, busW=4 BL=8 CL=12, tRRD=2 tCCD=6, tRCD=12 tRAS=28 tRP=12 tRC=40
n_cmd=57990 n_nop=49546 n_act=181 n_pre=165 n_req=688 n_rd=7904 n_write=194 bw_util=0.2793
n_activity=23776 dram_eff=0.6812
bk0: 448a 50366i bk1: 336a 52300i bk2: 512a 50536i bk3: 528a 50703i bk4: 512a 47893i bk5: 624a 48723i bk6: 512a 49293i bk7: 624a 47395i bk8: 560a 50230i bk9: 608a 52805i bk10: 432a 54930i bk11: 480a 52348i bk12: 448a 55057i bk13: 480a 53954i bk14: 432a 54016i bk15: 368a 53504i 
dram_util_bins: 0 0 0 0 0 0 0 0 0 0
dram_eff_bins: 0 0 0 0 0 0 0 0 0 0
mrqq: max=16 avg=2.93016
Memory Partition 3: 
Cache L2_bank_006:
MSHR contents

Cache L2_bank_007:
MSHR contents

In Dram Latency Queue (total = 0): 
DRAM[3]: 16 bks, busW=4 BL=8 CL=12, tRRD=2 tCCD=6, tRCD=12 tRAS=28 tRP=12 tRC=40
n_cmd=57990 n_nop=49487 n_act=181 n_pre=165 n_req=687 n_rd=7968 n_write=189 bw_util=0.2813
n_activity=24285 dram_eff=0.6718
bk0: 480a 53405i bk1: 400a 49894i bk2: 544a 52031i bk3: 544a 51006i bk4: 384a 49782i bk5: 544a 50412i bk6: 592a 51738i bk7: 576a 49245i bk8: 592a 53393i bk9: 704a 51668i bk10: 512a 55522i bk11: 480a 53783i bk12: 336a 56325i bk13: 448a 54657i bk14: 432a 55205i bk15: 400a 55889i 
dram_util_bins: 0 0 0 0 0 0 0 0 0 0
dram_eff_bins: 0 0 0 0 0 0 0 0 0 0
mrqq: max=16 avg=2.01588
Memory Partition 4: 
Cache L2_bank_008:
MSHR contents

Cache L2_bank_009:
MSHR contents

In Dram Latency Queue (total = 0): 
DRAM[4]: 16 bks, busW=4 BL=8 CL=12, tRRD=2 tCCD=6, tRCD=12 tRAS=28 tRP=12 tRC=40
n_cmd=57990 n_nop=49527 n_act=190 n_pre=174 n_req=674 n_rd=7920 n_write=179 bw_util=0.2793
n_activity=24396 dram_eff=0.664
bk0: 416a 53648i bk1: 512a 53182i bk2: 384a 52037i bk3: 560a 52922i bk4: 608a 51821i bk5: 496a 50848i bk6: 608a 53470i bk7: 480a 52198i bk8: 656a 52665i bk9: 624a 50757i bk10: 576a 54396i bk11: 416a 54784i bk12: 448a 55158i bk13: 416a 54530i bk14: 400a 55091i bk15: 320a 55034i 
dram_util_bins: 0 0 0 0 0 0 0 0 0 0
dram_eff_bins: 0 0 0 0 0 0 0 0 0 0
mrqq: max=16 avg=1.52514
Memory Partition 5: 
Cache L2_bank_010:
MSHR contents

Cache L2_bank_011:
MSHR contents

In Dram Latency Queue (total = 0): 
DRAM[5]: 16 bks, busW=4 BL=8 CL=12, tRRD=2 tCCD=6, tRCD=12 tRAS=28 tRP=12 tRC=40
n_cmd=57990 n_nop=49479 n_act=198 n_pre=182 n_req=676 n_rd=7952 n_write=179 bw_util=0.2804
n_activity=24353 dram_eff=0.6678
bk0: 496a 53576i bk1: 496a 53497i bk2: 544a 53236i bk3: 528a 51453i bk4: 512a 52314i bk5: 528a 51682i bk6: 608a 50990i bk7: 592a 52266i bk8: 592a 53702i bk9: 576a 52693i bk10: 496a 54272i bk11: 432a 54225i bk12: 352a 55917i bk13: 368a 55826i bk14: 416a 55496i bk15: 416a 55071i 
dram_util_bins: 0 0 0 0 0 0 0 0 0 0
dram_eff_bins: 0 0 0 0 0 0 0 0 0 0
mrqq: max=14 avg=1.23625

========= L2 cache stats =========
L2_cache_bank[0]: Access = 1899, Miss = 236, Miss_rate = 0.124, Pending_hits = 41, Reservation_fails = 284
L2_cache_bank[1]: Access = 1993, Miss = 256, Miss_rate = 0.128, Pending_hits = 48, Reservation_fails = 101
L2_cache_bank[2]: Access = 1916, Miss = 237, Miss_rate = 0.124, Pending_hits = 45, Reservation_fails = 143
L2_cache_bank[3]: Access = 1883, Miss = 252, Miss_rate = 0.134, Pending_hits = 41, Reservation_fails = 0
L2_cache_bank[4]: Access = 1903, Miss = 241, Miss_rate = 0.127, Pending_hits = 53, Reservation_fails = 0
L2_cache_bank[5]: Access = 1987, Miss = 253, Miss_rate = 0.127, Pending_hits = 38, Reservation_fails = 0
L2_cache_bank[6]: Access = 1868, Miss = 242, Miss_rate = 0.130, Pending_hits = 43, Reservation_fails = 0
L2_cache_bank[7]: Access = 1882, Miss = 256, Miss_rate = 0.136, Pending_hits = 46, Reservation_fails = 0
L2_cache_bank[8]: Access = 6242, Miss = 256, Miss_rate = 0.041, Pending_hits = 42, Reservation_fails = 0
L2_cache_bank[9]: Access = 1913, Miss = 239, Miss_rate = 0.125, Pending_hits = 38, Reservation_fails = 0
L2_cache_bank[10]: Access = 1983, Miss = 251, Miss_rate = 0.127, Pending_hits = 50, Reservation_fails = 0
L2_cache_bank[11]: Access = 1863, Miss = 246, Miss_rate = 0.132, Pending_hits = 39, Reservation_fails = 0
L2_total_cache_accesses = 27332
L2_total_cache_misses = 2965
L2_total_cache_miss_rate = 0.1085
L2_total_cache_pending_hits = 524
L2_total_cache_reservation_fails = 528
L2_total_cache_breakdown:
	L2_cache_stats_breakdown[GLOBAL_ACC_R][HIT] = 9039
	L2_cache_stats_breakdown[GLOBAL_ACC_R][HIT_RESERVED] = 417
	L2_cache_stats_breakdown[GLOBAL_ACC_R][MISS] = 1946
	L2_cache_stats_breakdown[GLOBAL_ACC_R][RESERVATION_FAIL] = 101
	L2_cache_stats_breakdown[CONST_ACC_R][HIT] = 11
	L2_cache_stats_breakdown[CONST_ACC_R][HIT_RESERVED] = 3
	L2_cache_stats_breakdown[CONST_ACC_R][MISS] = 1
	L2_cache_stats_breakdown[CONST_ACC_R][RESERVATION_FAIL] = 137
	L2_cache_stats_breakdown[GLOBAL_ACC_W][HIT] = 14741
	L2_cache_stats_breakdown[GLOBAL_ACC_W][HIT_RESERVED] = 98
	L2_cache_stats_breakdown[GLOBAL_ACC_W][MISS] = 1016
	L2_cache_stats_breakdown[INST_ACC_R][HIT] = 52
	L2_cache_stats_breakdown[INST_ACC_R][HIT_RESERVED] = 6
	L2_cache_stats_breakdown[INST_ACC_R][MISS] = 2
	L2_cache_stats_breakdown[INST_ACC_R][RESERVATION_FAIL] = 290
L2_cache_data_port_util = 0.097
L2_cache_fill_port_util = 0.180

icnt_total_pkts_mem_to_simt=73210
icnt_total_pkts_simt_to_mem=43190
LD_mem_lat_dist  0 0 0 0 0 0 0 0 0 0 0 0 0 0 0 0 0 0 0 0 0 0 0 0 0 0 0
ST_mem_lat_dist  0 0 0 0 0 0 0 0 0 0 0 0 0 0 0 0 0 0 0 0 0 0 0 0 0 0 0
----------------------------Interconnect-DETAILS--------------------------------
Class 0:
Packet latency average = 57.459
	minimum = 6
	maximum = 458
Network latency average = 33.5548
	minimum = 6
	maximum = 356
Slowest packet = 9997
Flit latency average = 26.9572
	minimum = 6
	maximum = 355
Slowest flit = 79135
Fragmentation average = 0.0430988
	minimum = 0
	maximum = 197
Injected packet rate average = 0.0716849
	minimum = 0.0528162 (at node 5)
	maximum = 0.22719 (at node 23)
Accepted packet rate average = 0.0716849
	minimum = 0.0528162 (at node 5)
	maximum = 0.22719 (at node 23)
Injected flit rate average = 0.149261
	minimum = 0.0850704 (at node 5)
	maximum = 0.351853 (at node 23)
Accepted flit rate average= 0.149261
	minimum = 0.0991816 (at node 15)
	maximum = 0.423215 (at node 23)
Injected packet length average = 2.08218
Accepted packet length average = 2.08218
Total in-flight flits = 0 (0 measured)
====== Overall Traffic Statistics ======
====== Traffic class 0 ======
Packet latency average = 21.0091 (4 samples)
	minimum = 6 (4 samples)
	maximum = 140.25 (4 samples)
Network latency average = 14.5945 (4 samples)
	minimum = 6 (4 samples)
	maximum = 111 (4 samples)
Flit latency average = 11.9487 (4 samples)
	minimum = 6 (4 samples)
	maximum = 108.75 (4 samples)
Fragmentation average = 0.0107747 (4 samples)
	minimum = 0 (4 samples)
	maximum = 49.25 (4 samples)
Injected packet rate average = 0.0273756 (4 samples)
	minimum = 0.0193006 (4 samples)
	maximum = 0.0808368 (4 samples)
Accepted packet rate average = 0.0273756 (4 samples)
	minimum = 0.0193006 (4 samples)
	maximum = 0.0808368 (4 samples)
Injected flit rate average = 0.0607724 (4 samples)
	minimum = 0.0289123 (4 samples)
	maximum = 0.14453 (4 samples)
Accepted flit rate average = 0.0607724 (4 samples)
	minimum = 0.034717 (4 samples)
	maximum = 0.15944 (4 samples)
Injected packet size average = 2.21995 (4 samples)
Accepted packet size average = 2.21995 (4 samples)
Hops average = 1 (4 samples)
----------------------------END-of-Interconnect-DETAILS-------------------------


gpgpu_simulation_time = 0 days, 0 hrs, 0 min, 24 sec (24 sec)
gpgpu_simulation_rate = 159684 (inst/sec)
gpgpu_simulation_rate = 1830 (cycle/sec)
GPGPU-Sim: synchronize waiting for inactive GPU simulation
GPGPU-Sim API: Stream Manager State
GPGPU-Sim: detected inactive GPU simulation thread

GPGPU-Sim PTX: cudaLaunch for 0x0x405636 (mode=performance simulation) on stream 0
GPGPU-Sim PTX: pushing kernel '_Z6KernelP4NodePiPbS2_S1_S2_i' to stream 0, gridDim= (256,1,1) blockDim = (256,1,1) 
kernel '_Z6KernelP4NodePiPbS2_S1_S2_i' transfer to GPU hardware scheduler
GPGPU-Sim uArch: Shader 12 bind to kernel 5 '_Z6KernelP4NodePiPbS2_S1_S2_i'
GPGPU-Sim uArch: core: 12, cta: 0 initialized @(1,43935)
GPGPU-Sim uArch: Shader 13 bind to kernel 5 '_Z6KernelP4NodePiPbS2_S1_S2_i'
GPGPU-Sim uArch: core: 13, cta: 0 initialized @(1,43935)
GPGPU-Sim uArch: Shader 14 bind to kernel 5 '_Z6KernelP4NodePiPbS2_S1_S2_i'
GPGPU-Sim uArch: core: 14, cta: 0 initialized @(1,43935)
GPGPU-Sim uArch: Shader 0 bind to kernel 5 '_Z6KernelP4NodePiPbS2_S1_S2_i'
GPGPU-Sim uArch: core:  0, cta: 0 initialized @(1,43935)
GPGPU-Sim uArch: Shader 1 bind to kernel 5 '_Z6KernelP4NodePiPbS2_S1_S2_i'
GPGPU-Sim uArch: core:  1, cta: 0 initialized @(1,43935)
GPGPU-Sim uArch: Shader 2 bind to kernel 5 '_Z6KernelP4NodePiPbS2_S1_S2_i'
GPGPU-Sim uArch: core:  2, cta: 0 initialized @(1,43935)
GPGPU-Sim uArch: Shader 3 bind to kernel 5 '_Z6KernelP4NodePiPbS2_S1_S2_i'
GPGPU-Sim uArch: core:  3, cta: 0 initialized @(1,43935)
GPGPU-Sim uArch: Shader 4 bind to kernel 5 '_Z6KernelP4NodePiPbS2_S1_S2_i'
GPGPU-Sim uArch: core:  4, cta: 0 initialized @(1,43935)
GPGPU-Sim uArch: Shader 5 bind to kernel 5 '_Z6KernelP4NodePiPbS2_S1_S2_i'
GPGPU-Sim uArch: core:  5, cta: 0 initialized @(1,43935)
GPGPU-Sim uArch: Shader 6 bind to kernel 5 '_Z6KernelP4NodePiPbS2_S1_S2_i'
GPGPU-Sim uArch: core:  6, cta: 0 initialized @(1,43935)
GPGPU-Sim uArch: Shader 7 bind to kernel 5 '_Z6KernelP4NodePiPbS2_S1_S2_i'
GPGPU-Sim uArch: core:  7, cta: 0 initialized @(1,43935)
GPGPU-Sim uArch: Shader 8 bind to kernel 5 '_Z6KernelP4NodePiPbS2_S1_S2_i'
GPGPU-Sim uArch: core:  8, cta: 0 initialized @(1,43935)
GPGPU-Sim uArch: Shader 9 bind to kernel 5 '_Z6KernelP4NodePiPbS2_S1_S2_i'
GPGPU-Sim uArch: core:  9, cta: 0 initialized @(1,43935)
GPGPU-Sim uArch: Shader 10 bind to kernel 5 '_Z6KernelP4NodePiPbS2_S1_S2_i'
GPGPU-Sim uArch: core: 10, cta: 0 initialized @(1,43935)
GPGPU-Sim uArch: Shader 11 bind to kernel 5 '_Z6KernelP4NodePiPbS2_S1_S2_i'
GPGPU-Sim uArch: core: 11, cta: 0 initialized @(1,43935)
GPGPU-Sim uArch: core: 12, cta: 1 initialized @(2,43935)
GPGPU-Sim uArch: core: 13, cta: 1 initialized @(2,43935)
GPGPU-Sim uArch: core: 14, cta: 1 initialized @(2,43935)
GPGPU-Sim uArch: core:  0, cta: 1 initialized @(2,43935)
GPGPU-Sim uArch: core:  1, cta: 1 initialized @(2,43935)
GPGPU-Sim uArch: core:  2, cta: 1 initialized @(2,43935)
GPGPU-Sim uArch: core:  3, cta: 1 initialized @(2,43935)
GPGPU-Sim uArch: core:  4, cta: 1 initialized @(2,43935)
GPGPU-Sim uArch: core:  5, cta: 1 initialized @(2,43935)
GPGPU-Sim uArch: core:  6, cta: 1 initialized @(2,43935)
GPGPU-Sim uArch: core:  7, cta: 1 initialized @(2,43935)
GPGPU-Sim uArch: core:  8, cta: 1 initialized @(2,43935)
GPGPU-Sim uArch: core:  9, cta: 1 initialized @(2,43935)
GPGPU-Sim uArch: core: 10, cta: 1 initialized @(2,43935)
GPGPU-Sim uArch: core: 11, cta: 1 initialized @(2,43935)
GPGPU-Sim uArch: core: 12, cta: 2 initialized @(3,43935)
GPGPU-Sim uArch: core: 13, cta: 2 initialized @(3,43935)
GPGPU-Sim uArch: core: 14, cta: 2 initialized @(3,43935)
GPGPU-Sim uArch: core:  0, cta: 2 initialized @(3,43935)
GPGPU-Sim uArch: core:  1, cta: 2 initialized @(3,43935)
GPGPU-Sim uArch: core:  2, cta: 2 initialized @(3,43935)
GPGPU-Sim uArch: core:  3, cta: 2 initialized @(3,43935)
GPGPU-Sim uArch: core:  4, cta: 2 initialized @(3,43935)
GPGPU-Sim uArch: core:  5, cta: 2 initialized @(3,43935)
GPGPU-Sim uArch: core:  6, cta: 2 initialized @(3,43935)
GPGPU-Sim uArch: core:  7, cta: 2 initialized @(3,43935)
GPGPU-Sim uArch: core:  8, cta: 2 initialized @(3,43935)
GPGPU-Sim uArch: core:  9, cta: 2 initialized @(3,43935)
GPGPU-Sim uArch: core: 10, cta: 2 initialized @(3,43935)
GPGPU-Sim uArch: core: 11, cta: 2 initialized @(3,43935)
GPGPU-Sim uArch: core: 12, cta: 3 initialized @(4,43935)
GPGPU-Sim uArch: core: 13, cta: 3 initialized @(4,43935)
GPGPU-Sim uArch: core: 14, cta: 3 initialized @(4,43935)
GPGPU-Sim uArch: core:  0, cta: 3 initialized @(4,43935)
GPGPU-Sim uArch: core:  1, cta: 3 initialized @(4,43935)
GPGPU-Sim uArch: core:  2, cta: 3 initialized @(4,43935)
GPGPU-Sim uArch: core:  3, cta: 3 initialized @(4,43935)
GPGPU-Sim uArch: core:  4, cta: 3 initialized @(4,43935)
GPGPU-Sim uArch: core:  5, cta: 3 initialized @(4,43935)
GPGPU-Sim uArch: core:  6, cta: 3 initialized @(4,43935)
GPGPU-Sim uArch: core:  7, cta: 3 initialized @(4,43935)
GPGPU-Sim uArch: core:  8, cta: 3 initialized @(4,43935)
GPGPU-Sim uArch: core:  9, cta: 3 initialized @(4,43935)
GPGPU-Sim uArch: core: 10, cta: 3 initialized @(4,43935)
GPGPU-Sim uArch: core: 11, cta: 3 initialized @(4,43935)
GPGPU-Sim uArch: core: 12, cta: 4 initialized @(5,43935)
GPGPU-Sim uArch: core: 13, cta: 4 initialized @(5,43935)
GPGPU-Sim uArch: core: 14, cta: 4 initialized @(5,43935)
GPGPU-Sim uArch: core:  0, cta: 4 initialized @(5,43935)
GPGPU-Sim uArch: core:  1, cta: 4 initialized @(5,43935)
GPGPU-Sim uArch: core:  2, cta: 4 initialized @(5,43935)
GPGPU-Sim uArch: core:  3, cta: 4 initialized @(5,43935)
GPGPU-Sim uArch: core:  4, cta: 4 initialized @(5,43935)
GPGPU-Sim uArch: core:  5, cta: 4 initialized @(5,43935)
GPGPU-Sim uArch: core:  6, cta: 4 initialized @(5,43935)
GPGPU-Sim uArch: core:  7, cta: 4 initialized @(5,43935)
GPGPU-Sim uArch: core:  8, cta: 4 initialized @(5,43935)
GPGPU-Sim uArch: core:  9, cta: 4 initialized @(5,43935)
GPGPU-Sim uArch: core: 10, cta: 4 initialized @(5,43935)
GPGPU-Sim uArch: core: 11, cta: 4 initialized @(5,43935)
GPGPU-Sim uArch: core: 12, cta: 5 initialized @(6,43935)
GPGPU-Sim uArch: core: 13, cta: 5 initialized @(6,43935)
GPGPU-Sim uArch: core: 14, cta: 5 initialized @(6,43935)
GPGPU-Sim uArch: core:  0, cta: 5 initialized @(6,43935)
GPGPU-Sim uArch: core:  1, cta: 5 initialized @(6,43935)
GPGPU-Sim uArch: core:  2, cta: 5 initialized @(6,43935)
GPGPU-Sim uArch: core:  3, cta: 5 initialized @(6,43935)
GPGPU-Sim uArch: core:  4, cta: 5 initialized @(6,43935)
GPGPU-Sim uArch: core:  5, cta: 5 initialized @(6,43935)
GPGPU-Sim uArch: core:  6, cta: 5 initialized @(6,43935)
GPGPU-Sim uArch: core:  7, cta: 5 initialized @(6,43935)
GPGPU-Sim uArch: core:  8, cta: 5 initialized @(6,43935)
GPGPU-Sim uArch: core:  9, cta: 5 initialized @(6,43935)
GPGPU-Sim uArch: core: 10, cta: 5 initialized @(6,43935)
GPGPU-Sim uArch: core: 11, cta: 5 initialized @(6,43935)
GPGPU-Sim PTX: 4200000 instructions simulated : ctaid=(55,0,0) tid=(77,0,0)
GPGPU-Sim PTX: 4300000 instructions simulated : ctaid=(57,0,0) tid=(237,0,0)
GPGPU-Sim PTX: 4400000 instructions simulated : ctaid=(49,0,0) tid=(169,0,0)
GPGPU-Sim uArch: cycles simulated: 44435  inst.: 4135719 (ipc=606.6) sim_rate=165428 (inst/sec) elapsed = 0:0:00:25 / Sun Feb 28 21:45:21 2016
GPGPU-Sim uArch: cycles simulated: 45435  inst.: 4146894 (ipc=209.6) sim_rate=159495 (inst/sec) elapsed = 0:0:00:26 / Sun Feb 28 21:45:22 2016
