

        *** GPGPU-Sim Simulator Version 3.2.2  [build 0] ***


GPGPU-Sim PTX: simulation mode 0 (can change with PTX_SIM_MODE_FUNC environment variable:
               1=functional simulation only, 0=detailed performance simulator)
GPGPU-Sim: Configuration options:

-network_mode                           1 # Interconnection network mode
-inter_config_file   config_fermi_islip.icnt # Interconnection network config file
-gpgpu_ptx_use_cuobjdump                    1 # Use cuobjdump to extract ptx and sass from binaries
-gpgpu_experimental_lib_support                    0 # Try to extract code from cuda libraries [Broken because of unknown cudaGetExportTable]
-gpgpu_ptx_convert_to_ptxplus                    0 # Convert SASS (native ISA) to ptxplus and run ptxplus
-gpgpu_ptx_force_max_capability                   20 # Force maximum compute capability
-gpgpu_ptx_inst_debug_to_file                    0 # Dump executed instructions' debug information to file
-gpgpu_ptx_inst_debug_file       inst_debug.txt # Executed instructions' debug output file
-gpgpu_ptx_inst_debug_thread_uid                    1 # Thread UID for executed instructions' debug output
-gpgpu_simd_model                       1 # 1 = post-dominator
-gpgpu_shader_core_pipeline              1536:32 # shader core pipeline config, i.e., {<nthread>:<warpsize>}
-gpgpu_tex_cache:l1  4:128:24,L:R:m:N:L,F:128:4,128:2 # per-shader L1 texture cache  (READ-ONLY) config  {<nsets>:<bsize>:<assoc>,<rep>:<wr>:<alloc>:<wr_alloc>,<mshr>:<N>:<merge>,<mq>:<rf>}
-gpgpu_const_cache:l1 64:64:2,L:R:f:N:L,A:2:32,4 # per-shader L1 constant memory cache  (READ-ONLY) config  {<nsets>:<bsize>:<assoc>,<rep>:<wr>:<alloc>:<wr_alloc>,<mshr>:<N>:<merge>,<mq>} 
-gpgpu_cache:il1     4:128:4,L:R:f:N:L,A:2:32,4 # shader L1 instruction cache config  {<nsets>:<bsize>:<assoc>,<rep>:<wr>:<alloc>:<wr_alloc>,<mshr>:<N>:<merge>,<mq>} 
-gpgpu_cache:dl1     32:128:4,L:L:m:N:H,A:32:8,8 # per-shader L1 data cache config  {<nsets>:<bsize>:<assoc>,<rep>:<wr>:<alloc>:<wr_alloc>,<mshr>:<N>:<merge>,<mq> | none}
-gpgpu_cache:dl1PrefL1                 none # per-shader L1 data cache config  {<nsets>:<bsize>:<assoc>,<rep>:<wr>:<alloc>:<wr_alloc>,<mshr>:<N>:<merge>,<mq> | none}
-gpgpu_cache:dl1PreShared                 none # per-shader L1 data cache config  {<nsets>:<bsize>:<assoc>,<rep>:<wr>:<alloc>:<wr_alloc>,<mshr>:<N>:<merge>,<mq> | none}
-gmem_skip_L1D                          0 # global memory access skip L1D cache (implements -Xptxas -dlcm=cg, default=no skip)
-gpgpu_perfect_mem                      0 # enable perfect memory mode (no cache miss)
-n_regfile_gating_group                    4 # group of lanes that should be read/written together)
-gpgpu_clock_gated_reg_file                    0 # enable clock gated reg file for power calculations
-gpgpu_clock_gated_lanes                    0 # enable clock gated lanes for power calculations
-gpgpu_shader_registers                32768 # Number of registers per shader core. Limits number of concurrent CTAs. (default 8192)
-gpgpu_shader_cta                       8 # Maximum number of concurrent CTAs in shader (default 8)
-gpgpu_num_cta_barriers                   16 # Maximum number of named barriers per CTA (default 16)
-gpgpu_n_clusters                      15 # number of processing clusters
-gpgpu_n_cores_per_cluster                    1 # number of simd cores per cluster
-gpgpu_n_cluster_ejection_buffer_size                    8 # number of packets in ejection buffer
-gpgpu_n_ldst_response_buffer_size                    2 # number of response packets in ld/st unit ejection buffer
-gpgpu_shmem_size                   16384 # Size of shared memory per shader core (default 16kB)
-gpgpu_shmem_size                   49152 # Size of shared memory per shader core (default 16kB)
-gpgpu_shmem_size_PrefL1                16384 # Size of shared memory per shader core (default 16kB)
-gpgpu_shmem_size_PrefShared                16384 # Size of shared memory per shader core (default 16kB)
-gpgpu_shmem_num_banks                   32 # Number of banks in the shared memory in each shader core (default 16)
-gpgpu_shmem_limited_broadcast                    0 # Limit shared memory to do one broadcast per cycle (default on)
-gpgpu_shmem_warp_parts                    1 # Number of portions a warp is divided into for shared memory bank conflict check 
-gpgpu_warpdistro_shader                   -1 # Specify which shader core to collect the warp size distribution from
-gpgpu_warp_issue_shader                    0 # Specify which shader core to collect the warp issue distribution from
-gpgpu_local_mem_map                    1 # Mapping from local memory space address to simulated GPU physical address space (default = enabled)
-gpgpu_num_reg_banks                   16 # Number of register banks (default = 8)
-gpgpu_reg_bank_use_warp_id                    0 # Use warp ID in mapping registers to banks (default = off)
-gpgpu_operand_collector_num_units_sp                    6 # number of collector units (default = 4)
-gpgpu_operand_collector_num_units_sfu                    8 # number of collector units (default = 4)
-gpgpu_operand_collector_num_units_mem                    2 # number of collector units (default = 2)
-gpgpu_operand_collector_num_units_gen                    0 # number of collector units (default = 0)
-gpgpu_operand_collector_num_in_ports_sp                    2 # number of collector unit in ports (default = 1)
-gpgpu_operand_collector_num_in_ports_sfu                    1 # number of collector unit in ports (default = 1)
-gpgpu_operand_collector_num_in_ports_mem                    1 # number of collector unit in ports (default = 1)
-gpgpu_operand_collector_num_in_ports_gen                    0 # number of collector unit in ports (default = 0)
-gpgpu_operand_collector_num_out_ports_sp                    2 # number of collector unit in ports (default = 1)
-gpgpu_operand_collector_num_out_ports_sfu                    1 # number of collector unit in ports (default = 1)
-gpgpu_operand_collector_num_out_ports_mem                    1 # number of collector unit in ports (default = 1)
-gpgpu_operand_collector_num_out_ports_gen                    0 # number of collector unit in ports (default = 0)
-gpgpu_coalesce_arch                   13 # Coalescing arch (default = 13, anything else is off for now)
-gpgpu_num_sched_per_core                    2 # Number of warp schedulers per core
-gpgpu_max_insn_issue_per_warp                    1 # Max number of instructions that can be issued per warp in one cycle by scheduler
-gpgpu_simt_core_sim_order                    1 # Select the simulation order of cores in a cluster (0=Fix, 1=Round-Robin)
-gpgpu_pipeline_widths        2,1,1,2,1,1,2 # Pipeline widths ID_OC_SP,ID_OC_SFU,ID_OC_MEM,OC_EX_SP,OC_EX_SFU,OC_EX_MEM,EX_WB
-gpgpu_num_sp_units                     2 # Number of SP units (default=1)
-gpgpu_num_sfu_units                    1 # Number of SF units (default=1)
-gpgpu_num_mem_units                    1 # Number if ldst units (default=1) WARNING: not hooked up to anything
-gpgpu_scheduler                      gto # Scheduler configuration: < lrr | gto | two_level_active > If two_level_active:<num_active_warps>:<inner_prioritization>:<outer_prioritization>For complete list of prioritization values see shader.h enum scheduler_prioritization_typeDefault: gto
-gpgpu_dram_scheduler                    1 # 0 = fifo, 1 = FR-FCFS (defaul)
-gpgpu_dram_partition_queues              8:8:8:8 # i2$:$2d:d2$:$2i
-l2_ideal                               0 # Use a ideal L2 cache that always hit
-gpgpu_cache:dl2     64:128:8,L:B:m:W:L,A:32:4,4:0,32 # unified banked L2 data cache config  {<nsets>:<bsize>:<assoc>,<rep>:<wr>:<alloc>:<wr_alloc>,<mshr>:<N>:<merge>,<mq>}
-gpgpu_cache:dl2_texture_only                    0 # L2 cache used for texture only
-gpgpu_n_mem                            6 # number of memory modules (e.g. memory controllers) in gpu
-gpgpu_n_sub_partition_per_mchannel                    2 # number of memory subpartition in each memory module
-gpgpu_n_mem_per_ctrlr                    2 # number of memory chips per memory controller
-gpgpu_memlatency_stat                   14 # track and display latency statistics 0x2 enables MC, 0x4 enables queue logs
-gpgpu_frfcfs_dram_sched_queue_size                   16 # 0 = unlimited (default); # entries per chip
-gpgpu_dram_return_queue_size                  116 # 0 = unlimited (default); # entries per chip
-gpgpu_dram_buswidth                    1 # default = 4 bytes (8 bytes per cycle at DDR)
-gpgpu_dram_burst_length                    8 # Burst length of each DRAM request (default = 4 data bus cycle)
-dram_data_command_freq_ratio                    4 # Frequency ratio between DRAM data bus and command bus (default = 2 times, i.e. DDR)
-gpgpu_dram_timing_opt nbk=16:CCD=2:RRD=6:RCD=12:RAS=28:RP=12:RC=40: CL=12:WL=4:CDLR=5:WR=12:nbkgrp=4:CCDL=3:RTPL=2 # DRAM timing parameters = {nbk:tCCD:tRRD:tRCD:tRAS:tRP:tRC:CL:WL:tCDLR:tWR:nbkgrp:tCCDL:tRTPL}
-rop_latency                          120 # ROP queue latency (default 85)
-dram_latency                         100 # DRAM latency (default 30)
-gpgpu_mem_addr_mapping dramid@8;00000000.00000000.00000000.00000000.0000RRRR.RRRRRRRR.BBBCCCCB.CCSSSSSS # mapping memory address to dram model {dramid@<start bit>;<memory address map>}
-gpgpu_mem_addr_test                    0 # run sweep test to check address mapping for aliased address
-gpgpu_mem_address_mask                    1 # 0 = old addressing mask, 1 = new addressing mask, 2 = new add. mask + flipped bank sel and chip sel bits
-gpuwattch_xml_file  gpuwattch_gtx480.xml # GPUWattch XML file
-power_simulation_enabled                    0 # Turn on power simulator (1=On, 0=Off)
-power_per_cycle_dump                    0 # Dump detailed power output each cycle
-power_trace_enabled                    0 # produce a file for the power trace (1=On, 0=Off)
-power_trace_zlevel                     6 # Compression level of the power trace output log (0=no comp, 9=highest)
-steady_power_levels_enabled                    0 # produce a file for the steady power levels (1=On, 0=Off)
-steady_state_definition                  8:4 # allowed deviation:number of samples
-gpgpu_max_cycle                        0 # terminates gpu simulation early (0 = no limit)
-gpgpu_max_insn                         0 # terminates gpu simulation early (0 = no limit)
-gpgpu_max_cta                          0 # terminates gpu simulation early (0 = no limit)
-gpgpu_runtime_stat                   500 # display runtime statistics such as dram utilization {<freq>:<flag>}
-liveness_message_freq                    1 # Minimum number of seconds between simulation liveness messages (0 = always print)
-gpgpu_flush_l1_cache                    0 # Flush L1 cache at the end of each kernel call
-gpgpu_flush_l2_cache                    0 # Flush L2 cache at the end of each kernel call
-gpgpu_deadlock_detect                    1 # Stop the simulation at deadlock (1=on (default), 0=off)
-gpgpu_ptx_instruction_classification                    0 # if enabled will classify ptx instruction types per kernel (Max 255 kernels now)
-gpgpu_ptx_sim_mode                     0 # Select between Performance (default) or Functional simulation (1)
-gpgpu_clock_domains 700.0:700.0:700.0:924.0 # Clock Domain Frequencies in MhZ {<Core Clock>:<ICNT Clock>:<L2 Clock>:<DRAM Clock>}
-gpgpu_max_concurrent_kernel                    8 # maximum kernels that can run concurrently on GPU
-gpgpu_cflog_interval                    0 # Interval between each snapshot in control flow logger
-visualizer_enabled                     0 # Turn on visualizer output (1=On, 0=Off)
-visualizer_outputfile                 NULL # Specifies the output log file for visualizer
-visualizer_zlevel                      6 # Compression level of the visualizer output log (0=no comp, 9=highest)
-trace_enabled                          0 # Turn on traces
-trace_components                    none # comma seperated list of traces to enable. Complete list found in trace_streams.tup. Default none
-trace_sampling_core                    0 # The core which is printed using CORE_DPRINTF. Default 0
-trace_sampling_memory_partition                   -1 # The memory partition which is printed using MEMPART_DPRINTF. Default -1 (i.e. all)
-enable_ptx_file_line_stats                    1 # Turn on PTX source line statistic profiling. (1 = On)
-ptx_line_stats_filename gpgpu_inst_stats.txt # Output file for PTX source line statistics.
-save_embedded_ptx                      0 # saves ptx files embedded in binary as <n>.ptx
-keep                                   0 # keep intermediate files created by GPGPU-Sim when interfacing with external programs
-gpgpu_ptx_save_converted_ptxplus                    0 # Saved converted ptxplus to a file
-ptx_opcode_latency_int         4,13,4,5,145 # Opcode latencies for integers <ADD,MAX,MUL,MAD,DIV>Default 1,1,19,25,145
-ptx_opcode_latency_fp          4,13,4,5,39 # Opcode latencies for single precision floating points <ADD,MAX,MUL,MAD,DIV>Default 1,1,1,1,30
-ptx_opcode_latency_dp         8,19,8,8,330 # Opcode latencies for double precision floating points <ADD,MAX,MUL,MAD,DIV>Default 8,8,8,8,335
-ptx_opcode_initiation_int            1,2,2,1,8 # Opcode initiation intervals for integers <ADD,MAX,MUL,MAD,DIV>Default 1,1,4,4,32
-ptx_opcode_initiation_fp            1,2,1,1,4 # Opcode initiation intervals for single precision floating points <ADD,MAX,MUL,MAD,DIV>Default 1,1,1,1,5
-ptx_opcode_initiation_dp         8,16,8,8,130 # Opcode initiation intervals for double precision floating points <ADD,MAX,MUL,MAD,DIV>Default 8,8,8,8,130
DRAM Timing Options:
nbk                                    16 # number of banks
CCD                                     2 # column to column delay
RRD                                     6 # minimal delay between activation of rows in different banks
RCD                                    12 # row to column delay
RAS                                    28 # time needed to activate row
RP                                     12 # time needed to precharge (deactivate) row
RC                                     40 # row cycle time
CDLR                                    5 # switching from write to read (changes tWTR)
WR                                     12 # last data-in to row precharge
CL                                     12 # CAS latency
WL                                      4 # Write latency
nbkgrp                                  4 # number of bank groups
CCDL                                    3 # column to column delay between accesses to different bank groups
RTPL                                    2 # read to precharge delay between accesses to different bank groups
Total number of memory sub partition = 12
addr_dec_mask[CHIP]  = 0000000000000000 	high:64 low:0
addr_dec_mask[BK]    = 000000000000e100 	high:16 low:8
addr_dec_mask[ROW]   = 000000000fff0000 	high:28 low:16
addr_dec_mask[COL]   = 0000000000001eff 	high:13 low:0
addr_dec_mask[BURST] = 000000000000003f 	high:6 low:0
sub_partition_id_mask = 0000000000000100
GPGPU-Sim uArch: clock freqs: 700000000.000000:700000000.000000:700000000.000000:924000000.000000
GPGPU-Sim uArch: clock periods: 0.00000000142857142857:0.00000000142857142857:0.00000000142857142857:0.00000000108225108225
*** Initializing Memory Statistics ***
GPGPU-Sim uArch: interconnect node map (shaderID+MemID to icntID)
GPGPU-Sim uArch: Memory nodes ID start from index: 15
GPGPU-Sim uArch:    0   1   2   3   4
GPGPU-Sim uArch:    5   6   7   8   9
GPGPU-Sim uArch:   10  11  12  13  14
GPGPU-Sim uArch:   15  16  17  18  19
GPGPU-Sim uArch:   20  21  22  23  24
GPGPU-Sim uArch:   25  26
GPGPU-Sim uArch: interconnect node reverse map (icntID to shaderID+MemID)
GPGPU-Sim uArch: Memory nodes start from ID: 15
GPGPU-Sim uArch:    0   1   2   3   4
GPGPU-Sim uArch:    5   6   7   8   9
GPGPU-Sim uArch:   10  11  12  13  14
GPGPU-Sim uArch:   15  16  17  18  19
GPGPU-Sim uArch:   20  21  22  23  24
GPGPU-Sim uArch:   25  26
316bcbff5f8f022bb22b20bb4721e93e  /sciclone/data20/adwait/applications/benchmarks/CUDA/RAY/gpgpu_ptx_sim__RAY
GPGPU-Sim uArch: performance model initialization complete.
GPGPU-Sim PTX: __cudaRegisterFatBinary, fat_cubin_handle = 1, filename=rayTracing.cu
self exe links to: /sciclone/data20/adwait/applications/benchmarks/CUDA/RAY/gpgpu_ptx_sim__RAY
Running md5sum using "md5sum /sciclone/data20/adwait/applications/benchmarks/CUDA/RAY/gpgpu_ptx_sim__RAY "
Parsing file _cuobjdump_complete_output_7lAKO5
######### cuobjdump parser ########
## Adding new section ELF
Adding arch: sm_20
Adding identifier: rayTracing.cu
## Adding new section PTX
Adding ptx filename: _cuobjdump_1.ptx
Adding arch: sm_20
Adding identifier: rayTracing.cu
Done parsing!!!
GPGPU-Sim PTX: __cudaRegisterFunction _Z6renderPjP4Nodejjff : hostFun 0x0x40ce13, fat_cubin_handle = 1
GPGPU-Sim PTX: allocating stack frame region for .param "__cudaretf__Zmi6float3S_" from 0x0 to 0xc
GPGPU-Sim PTX: allocating stack frame region for .param "__cudaparmf1__Zmi6float3S_" from 0xc to 0x18
GPGPU-Sim PTX: allocating stack frame region for .param "__cudaparmf2__Zmi6float3S_" from 0x18 to 0x24
GPGPU-Sim PTX: allocating stack frame region for .param "__cudaretf__Z9normalize6float3" from 0x0 to 0xc
GPGPU-Sim PTX: allocating stack frame region for .param "__cudaparmf1__Z9normalize6float3" from 0xc to 0x18
GPGPU-Sim PTX: allocating stack frame region for .param "__cudaretf__Z18intersectionSphere5Rayon6float3f" from 0x0 to 0x4
GPGPU-Sim PTX: allocating stack frame region for .param "__cudaparmf1__Z18intersectionSphere5Rayon6float3f" from 0x4 to 0x1c
GPGPU-Sim PTX: allocating stack frame region for .param "__cudaparmf2__Z18intersectionSphere5Rayon6float3f" from 0x1c to 0x28
GPGPU-Sim PTX: allocating stack frame region for .param "__cudaparmf3__Z18intersectionSphere5Rayon6float3f" from 0x28 to 0x2c
GPGPU-Sim PTX: allocating stack frame region for .param "__cudaretf__Z16intersectionPlan5Rayon6float3S0_" from 0x0 to 0x4
GPGPU-Sim PTX: allocating stack frame region for .param "__cudaparmf1__Z16intersectionPlan5Rayon6float3S0_" from 0x4 to 0x1c
GPGPU-Sim PTX: allocating stack frame region for .param "__cudaparmf2__Z16intersectionPlan5Rayon6float3S0_" from 0x1c to 0x28
GPGPU-Sim PTX: allocating stack frame region for .param "__cudaparmf3__Z16intersectionPlan5Rayon6float3S0_" from 0x28 to 0x34
GPGPU-Sim PTX: allocating stack frame region for .param "__cudaretf__Z10getNormale6float3S_" from 0x0 to 0xc
GPGPU-Sim PTX: allocating stack frame region for .param "__cudaparmf1__Z10getNormale6float3S_" from 0xc to 0x18
GPGPU-Sim PTX: allocating stack frame region for .param "__cudaparmf2__Z10getNormale6float3S_" from 0x18 to 0x24
GPGPU-Sim PTX: allocating stack frame region for .param "__cudaretf__Z11getNormaleP6float3" from 0x0 to 0xc
GPGPU-Sim PTX: allocating stack frame region for .param "__cudaparmf1__Z11getNormaleP6float3" from 0xc to 0x18
GPGPU-Sim PTX: allocating stack frame region for .param "__cudaretf__Z14rgbaFloatToInt6float4" from 0x0 to 0x4
GPGPU-Sim PTX: allocating stack frame region for .param "__cudaparmf1__Z14rgbaFloatToInt6float4" from 0x4 to 0x14
GPGPU-Sim PTX: allocating stack frame region for .param "__cudaretf__Z12notShadowRayP4Node6float3S1_f" from 0x0 to 0x4
GPGPU-Sim PTX: allocating stack frame region for .param "__cudaparmf1__Z12notShadowRayP4Node6float3S1_f" from 0x4 to 0xc
GPGPU-Sim PTX: allocating stack frame region for .param "__cudaparmf2__Z12notShadowRayP4Node6float3S1_f" from 0xc to 0x18
GPGPU-Sim PTX: allocating stack frame region for .param "__cudaparmf3__Z12notShadowRayP4Node6float3S1_f" from 0x18 to 0x24
GPGPU-Sim PTX: allocating stack frame region for .param "__cudaparmf4__Z12notShadowRayP4Node6float3S1_f" from 0x24 to 0x28
GPGPU-Sim PTX: allocating stack frame region for .param "__cudaretf__Z15float2int_pow20f" from 0x0 to 0x4
GPGPU-Sim PTX: allocating stack frame region for .param "__cudaparmf1__Z15float2int_pow20f" from 0x4 to 0x8
GPGPU-Sim PTX: allocating stack frame region for .param "__cudaretf__Z15float2int_pow50f" from 0x0 to 0x4
GPGPU-Sim PTX: allocating stack frame region for .param "__cudaparmf1__Z15float2int_pow50f" from 0x4 to 0x8
GPGPU-Sim PTX: allocating stack frame region for .param "__cudaparmf1__ZN4dim3C1Ejjj" from 0x0 to 0x8
GPGPU-Sim PTX: allocating stack frame region for .param "__cudaparmf2__ZN4dim3C1Ejjj" from 0x8 to 0xc
GPGPU-Sim PTX: allocating stack frame region for .param "__cudaparmf3__ZN4dim3C1Ejjj" from 0xc to 0x10
GPGPU-Sim PTX: allocating stack frame region for .param "__cudaparmf4__ZN4dim3C1Ejjj" from 0x10 to 0x14
GPGPU-Sim PTX: instruction assembly for function '_Zmi6float3S_'...   done.
GPGPU-Sim PTX: finding reconvergence points for '_Zmi6float3S_'...
GPGPU-Sim PTX: Finding dominators for '_Zmi6float3S_'...
GPGPU-Sim PTX: Finding immediate dominators for '_Zmi6float3S_'...
GPGPU-Sim PTX: Finding postdominators for '_Zmi6float3S_'...
GPGPU-Sim PTX: Finding immediate postdominators for '_Zmi6float3S_'...
GPGPU-Sim PTX: pre-decoding instructions for '_Zmi6float3S_'...
GPGPU-Sim PTX: reconvergence points for _Zmi6float3S_...
GPGPU-Sim PTX: ... end of reconvergence points for _Zmi6float3S_
GPGPU-Sim PTX: ... done pre-decoding instructions for '_Zmi6float3S_'.
GPGPU-Sim PTX: instruction assembly for function '_Z9normalize6float3'...   done.
GPGPU-Sim PTX: finding reconvergence points for '_Z9normalize6float3'...
GPGPU-Sim PTX: Finding dominators for '_Z9normalize6float3'...
GPGPU-Sim PTX: Finding immediate dominators for '_Z9normalize6float3'...
GPGPU-Sim PTX: Finding postdominators for '_Z9normalize6float3'...
GPGPU-Sim PTX: Finding immediate postdominators for '_Z9normalize6float3'...
GPGPU-Sim PTX: pre-decoding instructions for '_Z9normalize6float3'...
GPGPU-Sim PTX: reconvergence points for _Z9normalize6float3...
GPGPU-Sim PTX: ... end of reconvergence points for _Z9normalize6float3
GPGPU-Sim PTX: ... done pre-decoding instructions for '_Z9normalize6float3'.
GPGPU-Sim PTX: instruction assembly for function '_Z18intersectionSphere5Rayon6float3f'...   done.
GPGPU-Sim PTX: finding reconvergence points for '_Z18intersectionSphere5Rayon6float3f'...
GPGPU-Sim PTX: Finding dominators for '_Z18intersectionSphere5Rayon6float3f'...
GPGPU-Sim PTX: Finding immediate dominators for '_Z18intersectionSphere5Rayon6float3f'...
GPGPU-Sim PTX: Finding postdominators for '_Z18intersectionSphere5Rayon6float3f'...
GPGPU-Sim PTX: Finding immediate postdominators for '_Z18intersectionSphere5Rayon6float3f'...
GPGPU-Sim PTX: pre-decoding instructions for '_Z18intersectionSphere5Rayon6float3f'...
GPGPU-Sim PTX: reconvergence points for _Z18intersectionSphere5Rayon6float3f...
GPGPU-Sim PTX:  1 (potential) branch divergence @  PC=0x250 (_1.ptx:173) @%p2 bra $Lt_2_3074;
GPGPU-Sim PTX:    immediate post dominator      @  PC=0x2c0 (_1.ptx:193) mov.f32 %f39, %f32;
GPGPU-Sim PTX:  2 (potential) branch divergence @  PC=0x260 (_1.ptx:175) bra.uni $Lt_2_2818;
GPGPU-Sim PTX:    immediate post dominator      @  PC=0x2c0 (_1.ptx:193) mov.f32 %f39, %f32;
GPGPU-Sim PTX:  3 (potential) branch divergence @  PC=0x280 (_1.ptx:180) @!%p3 bra $Lt_2_3586;
GPGPU-Sim PTX:    immediate post dominator      @  PC=0x2c0 (_1.ptx:193) mov.f32 %f39, %f32;
GPGPU-Sim PTX:  4 (potential) branch divergence @  PC=0x290 (_1.ptx:182) bra.uni $Lt_2_3330;
GPGPU-Sim PTX:    immediate post dominator      @  PC=0x2c0 (_1.ptx:193) mov.f32 %f39, %f32;
GPGPU-Sim PTX: ... end of reconvergence points for _Z18intersectionSphere5Rayon6float3f
GPGPU-Sim PTX: ... done pre-decoding instructions for '_Z18intersectionSphere5Rayon6float3f'.
GPGPU-Sim PTX: instruction assembly for function '_Z16intersectionPlan5Rayon6float3S0_'...   done.
GPGPU-Sim PTX: finding reconvergence points for '_Z16intersectionPlan5Rayon6float3S0_'...
GPGPU-Sim PTX: Finding dominators for '_Z16intersectionPlan5Rayon6float3S0_'...
GPGPU-Sim PTX: Finding immediate dominators for '_Z16intersectionPlan5Rayon6float3S0_'...
GPGPU-Sim PTX: Finding postdominators for '_Z16intersectionPlan5Rayon6float3S0_'...
GPGPU-Sim PTX: Finding immediate postdominators for '_Z16intersectionPlan5Rayon6float3S0_'...
GPGPU-Sim PTX: pre-decoding instructions for '_Z16intersectionPlan5Rayon6float3S0_'...
GPGPU-Sim PTX: reconvergence points for _Z16intersectionPlan5Rayon6float3S0_...
GPGPU-Sim PTX:  1 (potential) branch divergence @  PC=0x320 (_1.ptx:214) @!%p1 bra $Lt_3_2050;
GPGPU-Sim PTX:    immediate post dominator      @  PC=0x368 (_1.ptx:227) mov.f32 %f14, %f9;
GPGPU-Sim PTX:  2 (potential) branch divergence @  PC=0x330 (_1.ptx:216) bra.uni $Lt_3_1794;
GPGPU-Sim PTX:    immediate post dominator      @  PC=0x368 (_1.ptx:227) mov.f32 %f14, %f9;
GPGPU-Sim PTX: ... end of reconvergence points for _Z16intersectionPlan5Rayon6float3S0_
GPGPU-Sim PTX: ... done pre-decoding instructions for '_Z16intersectionPlan5Rayon6float3S0_'.
GPGPU-Sim PTX: instruction assembly for function '_Z10getNormale6float3S_'...   done.
GPGPU-Sim PTX: finding reconvergence points for '_Z10getNormale6float3S_'...
GPGPU-Sim PTX: Finding dominators for '_Z10getNormale6float3S_'...
GPGPU-Sim PTX: Finding immediate dominators for '_Z10getNormale6float3S_'...
GPGPU-Sim PTX: Finding postdominators for '_Z10getNormale6float3S_'...
GPGPU-Sim PTX: Finding immediate postdominators for '_Z10getNormale6float3S_'...
GPGPU-Sim PTX: pre-decoding instructions for '_Z10getNormale6float3S_'...
GPGPU-Sim PTX: reconvergence points for _Z10getNormale6float3S_...
GPGPU-Sim PTX: ... end of reconvergence points for _Z10getNormale6float3S_
GPGPU-Sim PTX: ... done pre-decoding instructions for '_Z10getNormale6float3S_'.
GPGPU-Sim PTX: instruction assembly for function '_Z11getNormaleP6float3'...   done.
GPGPU-Sim PTX: finding reconvergence points for '_Z11getNormaleP6float3'...
GPGPU-Sim PTX: Finding dominators for '_Z11getNormaleP6float3'...
GPGPU-Sim PTX: Finding immediate dominators for '_Z11getNormaleP6float3'...
GPGPU-Sim PTX: Finding postdominators for '_Z11getNormaleP6float3'...
GPGPU-Sim PTX: Finding immediate postdominators for '_Z11getNormaleP6float3'...
GPGPU-Sim PTX: pre-decoding instructions for '_Z11getNormaleP6float3'...
GPGPU-Sim PTX: reconvergence points for _Z11getNormaleP6float3...
GPGPU-Sim PTX: ... end of reconvergence points for _Z11getNormaleP6float3
GPGPU-Sim PTX: ... done pre-decoding instructions for '_Z11getNormaleP6float3'.
GPGPU-Sim PTX: instruction assembly for function '_Z14rgbaFloatToInt6float4'...   done.
GPGPU-Sim PTX: finding reconvergence points for '_Z14rgbaFloatToInt6float4'...
GPGPU-Sim PTX: Finding dominators for '_Z14rgbaFloatToInt6float4'...
GPGPU-Sim PTX: Finding immediate dominators for '_Z14rgbaFloatToInt6float4'...
GPGPU-Sim PTX: Finding postdominators for '_Z14rgbaFloatToInt6float4'...
GPGPU-Sim PTX: Finding immediate postdominators for '_Z14rgbaFloatToInt6float4'...
GPGPU-Sim PTX: pre-decoding instructions for '_Z14rgbaFloatToInt6float4'...
GPGPU-Sim PTX: reconvergence points for _Z14rgbaFloatToInt6float4...
GPGPU-Sim PTX: ... end of reconvergence points for _Z14rgbaFloatToInt6float4
GPGPU-Sim PTX: ... done pre-decoding instructions for '_Z14rgbaFloatToInt6float4'.
GPGPU-Sim PTX: allocating global region for "cnode" from 0x100 to 0x1a0 (global memory space)
GPGPU-Sim PTX: instruction assembly for function '_Z12notShadowRayP4Node6float3S1_f'...   done.
GPGPU-Sim PTX: finding reconvergence points for '_Z12notShadowRayP4Node6float3S1_f'...
GPGPU-Sim PTX: Finding dominators for '_Z12notShadowRayP4Node6float3S1_f'...
GPGPU-Sim PTX: Finding immediate dominators for '_Z12notShadowRayP4Node6float3S1_f'...
GPGPU-Sim PTX: Finding postdominators for '_Z12notShadowRayP4Node6float3S1_f'...
GPGPU-Sim PTX: Finding immediate postdominators for '_Z12notShadowRayP4Node6float3S1_f'...
GPGPU-Sim PTX: pre-decoding instructions for '_Z12notShadowRayP4Node6float3S1_f'...
GPGPU-Sim PTX: reconvergence points for _Z12notShadowRayP4Node6float3S1_f...
GPGPU-Sim PTX:  1 (potential) branch divergence @  PC=0x638 (_1.ptx:364) @%p1 bra $Lt_7_8450;
GPGPU-Sim PTX:    immediate post dominator      @  PC=0x828 (_1.ptx:441) mov.f32 %f58, 0f00000000;    // 0
GPGPU-Sim PTX:  2 (potential) branch divergence @  PC=0x658 (_1.ptx:369) @!%p2 bra $Lt_7_8962;
GPGPU-Sim PTX:    immediate post dominator      @  PC=0x6b8 (_1.ptx:385) mov.f32 %f28, %f20;
GPGPU-Sim PTX:  3 (potential) branch divergence @  PC=0x668 (_1.ptx:371) bra.uni $Lt_7_8706;
GPGPU-Sim PTX:    immediate post dominator      @  PC=0x6b8 (_1.ptx:385) mov.f32 %f28, %f20;
GPGPU-Sim PTX:  4 (potential) branch divergence @  PC=0x6c0 (_1.ptx:386) bra.uni $Lt_7_8194;
GPGPU-Sim PTX:    immediate post dominator      @  PC=0x828 (_1.ptx:441) mov.f32 %f58, 0f00000000;    // 0
GPGPU-Sim PTX:  5 (potential) branch divergence @  PC=0x7b0 (_1.ptx:418) @%p5 bra $Lt_7_9474;
GPGPU-Sim PTX:    immediate post dominator      @  PC=0x820 (_1.ptx:438) mov.f32 %f28, %f51;
GPGPU-Sim PTX:  6 (potential) branch divergence @  PC=0x7c0 (_1.ptx:420) bra.uni $Lt_7_9730;
GPGPU-Sim PTX:    immediate post dominator      @  PC=0x820 (_1.ptx:438) mov.f32 %f28, %f51;
GPGPU-Sim PTX:  7 (potential) branch divergence @  PC=0x7e0 (_1.ptx:425) @!%p6 bra $Lt_7_9986;
GPGPU-Sim PTX:    immediate post dominator      @  PC=0x820 (_1.ptx:438) mov.f32 %f28, %f51;
GPGPU-Sim PTX:  8 (potential) branch divergence @  PC=0x7f0 (_1.ptx:427) bra.uni $Lt_7_9730;
GPGPU-Sim PTX:    immediate post dominator      @  PC=0x820 (_1.ptx:438) mov.f32 %f28, %f51;
GPGPU-Sim PTX:  9 (potential) branch divergence @  PC=0x838 (_1.ptx:443) @!%p7 bra $Lt_7_10242;
GPGPU-Sim PTX:    immediate post dominator      @  PC=0x8e8 (_1.ptx:468) add.s32 %r1, %r1, 1;
GPGPU-Sim PTX: 10 (potential) branch divergence @  PC=0x8d8 (_1.ptx:463) @!%p8 bra $Lt_7_10242;
GPGPU-Sim PTX:    immediate post dominator      @  PC=0x8e8 (_1.ptx:468) add.s32 %r1, %r1, 1;
GPGPU-Sim PTX: 11 (potential) branch divergence @  PC=0x908 (_1.ptx:472) @%p9 bra $Lt_7_10754;
GPGPU-Sim PTX:    immediate post dominator      @  PC=0x960 (_1.ptx:486) selp.s32 %r10, 1, 0, %p11;
GPGPU-Sim PTX: 12 (potential) branch divergence @  PC=0x930 (_1.ptx:477) @%p10 bra $L_7_7170;
GPGPU-Sim PTX:    immediate post dominator      @  PC=0x960 (_1.ptx:486) selp.s32 %r10, 1, 0, %p11;
GPGPU-Sim PTX: 13 (potential) branch divergence @  PC=0x938 (_1.ptx:478) bra.uni $L_7_7938;
GPGPU-Sim PTX:    immediate post dominator      @  PC=0x960 (_1.ptx:486) selp.s32 %r10, 1, 0, %p11;
GPGPU-Sim PTX: ... end of reconvergence points for _Z12notShadowRayP4Node6float3S1_f
GPGPU-Sim PTX: ... done pre-decoding instructions for '_Z12notShadowRayP4Node6float3S1_f'.
GPGPU-Sim PTX: instruction assembly for function '_Z15float2int_pow20f'...   done.
GPGPU-Sim PTX: finding reconvergence points for '_Z15float2int_pow20f'...
GPGPU-Sim PTX: Finding dominators for '_Z15float2int_pow20f'...
GPGPU-Sim PTX: Finding immediate dominators for '_Z15float2int_pow20f'...
GPGPU-Sim PTX: Finding postdominators for '_Z15float2int_pow20f'...
GPGPU-Sim PTX: Finding immediate postdominators for '_Z15float2int_pow20f'...
GPGPU-Sim PTX: pre-decoding instructions for '_Z15float2int_pow20f'...
GPGPU-Sim PTX: reconvergence points for _Z15float2int_pow20f...
GPGPU-Sim PTX: ... end of reconvergence points for _Z15float2int_pow20f
GPGPU-Sim PTX: ... done pre-decoding instructions for '_Z15float2int_pow20f'.
GPGPU-Sim PTX: instruction assembly for function '_Z15float2int_pow50f'...   done.
GPGPU-Sim PTX: finding reconvergence points for '_Z15float2int_pow50f'...
GPGPU-Sim PTX: Finding dominators for '_Z15float2int_pow50f'...
GPGPU-Sim PTX: Finding immediate dominators for '_Z15float2int_pow50f'...
GPGPU-Sim PTX: Finding postdominators for '_Z15float2int_pow50f'...
GPGPU-Sim PTX: Finding immediate postdominators for '_Z15float2int_pow50f'...
GPGPU-Sim PTX: pre-decoding instructions for '_Z15float2int_pow50f'...
GPGPU-Sim PTX: reconvergence points for _Z15float2int_pow50f...
GPGPU-Sim PTX: ... end of reconvergence points for _Z15float2int_pow50f
GPGPU-Sim PTX: ... done pre-decoding instructions for '_Z15float2int_pow50f'.
GPGPU-Sim PTX: allocating constant region for "MView" from 0x200 to 0x230 (global memory space) 1
GPGPU-Sim PTX: allocating stack frame region for .local "__cuda___cuda_local_var_35463_9_non_const_pile_32240" from 0x0 to 0x50
GPGPU-Sim PTX: instruction assembly for function '_Z6renderPjP4Nodejjff'...   done.
GPGPU-Sim PTX: finding reconvergence points for '_Z6renderPjP4Nodejjff'...
GPGPU-Sim PTX: Finding dominators for '_Z6renderPjP4Nodejjff'...
GPGPU-Sim PTX: Finding immediate dominators for '_Z6renderPjP4Nodejjff'...
GPGPU-Sim PTX: Finding postdominators for '_Z6renderPjP4Nodejjff'...
GPGPU-Sim PTX: Finding immediate postdominators for '_Z6renderPjP4Nodejjff'...
GPGPU-Sim PTX: pre-decoding instructions for '_Z6renderPjP4Nodejjff'...
GPGPU-Sim PTX: reconvergence points for _Z6renderPjP4Nodejjff...
GPGPU-Sim PTX:  1 (potential) branch divergence @  PC=0xdb0 (_1.ptx:663) @%p1 bra $Lt_10_44034;
GPGPU-Sim PTX:    immediate post dominator      @  PC=0x2370 (_1.ptx:1495) exit;
GPGPU-Sim PTX:  2 (potential) branch divergence @  PC=0x1028 (_1.ptx:751) @%p2 bra $Lt_10_45570;
GPGPU-Sim PTX:    immediate post dominator      @  PC=0x11b8 (_1.ptx:815) mov.f32 %f108, 0f00000000;   // 0
GPGPU-Sim PTX:  3 (potential) branch divergence @  PC=0x1048 (_1.ptx:756) @!%p3 bra $Lt_10_46082;
GPGPU-Sim PTX:    immediate post dominator      @  PC=0x1090 (_1.ptx:769) mov.f32 %f87, %f82;
GPGPU-Sim PTX:  4 (potential) branch divergence @  PC=0x1058 (_1.ptx:758) bra.uni $Lt_10_45826;
GPGPU-Sim PTX:    immediate post dominator      @  PC=0x1090 (_1.ptx:769) mov.f32 %f87, %f82;
GPGPU-Sim PTX:  5 (potential) branch divergence @  PC=0x1098 (_1.ptx:770) bra.uni $Lt_10_45314;
GPGPU-Sim PTX:    immediate post dominator      @  PC=0x11b8 (_1.ptx:815) mov.f32 %f108, 0f00000000;   // 0
GPGPU-Sim PTX:  6 (potential) branch divergence @  PC=0x1140 (_1.ptx:793) @%p6 bra $Lt_10_46594;
GPGPU-Sim PTX:    immediate post dominator      @  PC=0x11b0 (_1.ptx:813) mov.f32 %f87, %f101;
GPGPU-Sim PTX:  7 (potential) branch divergence @  PC=0x1150 (_1.ptx:795) bra.uni $Lt_10_46850;
GPGPU-Sim PTX:    immediate post dominator      @  PC=0x11b0 (_1.ptx:813) mov.f32 %f87, %f101;
GPGPU-Sim PTX:  8 (potential) branch divergence @  PC=0x1170 (_1.ptx:800) @!%p7 bra $Lt_10_47106;
GPGPU-Sim PTX:    immediate post dominator      @  PC=0x11b0 (_1.ptx:813) mov.f32 %f87, %f101;
GPGPU-Sim PTX:  9 (potential) branch divergence @  PC=0x1180 (_1.ptx:802) bra.uni $Lt_10_46850;
GPGPU-Sim PTX:    immediate post dominator      @  PC=0x11b0 (_1.ptx:813) mov.f32 %f87, %f101;
GPGPU-Sim PTX: 10 (potential) branch divergence @  PC=0x11f8 (_1.ptx:823) @%p8 bra $Lt_10_47362;
GPGPU-Sim PTX:    immediate post dominator      @  PC=0x1210 (_1.ptx:829) add.s32 %r25, %r25, 1;
GPGPU-Sim PTX: 11 (potential) branch divergence @  PC=0x1230 (_1.ptx:833) @%p9 bra $Lt_10_45058;
GPGPU-Sim PTX:    immediate post dominator      @  PC=0x1238 (_1.ptx:834) mov.f32 %f109, 0f00000000;   // 0
GPGPU-Sim PTX: 12 (potential) branch divergence @  PC=0x1280 (_1.ptx:843) @%p10 bra $Lt_10_48130;
GPGPU-Sim PTX:    immediate post dominator      @  PC=0x2140 (_1.ptx:1416) add.s32 %r23, %r23, 1;
GPGPU-Sim PTX: 13 (potential) branch divergence @  PC=0x1330 (_1.ptx:868) @%p11 bra $Lt_10_48898;
GPGPU-Sim PTX:    immediate post dominator      @  PC=0x13b8 (_1.ptx:888) sub.f32 %f136, %f21, %f119;
GPGPU-Sim PTX: 14 (potential) branch divergence @  PC=0x1350 (_1.ptx:873) bra.uni $Lt_10_48642;
GPGPU-Sim PTX:    immediate post dominator      @  PC=0x13b8 (_1.ptx:888) sub.f32 %f136, %f21, %f119;
GPGPU-Sim PTX: 15 (potential) branch divergence @  PC=0x1430 (_1.ptx:903) @!%p12 bra $Lt_10_49410;
GPGPU-Sim PTX:    immediate post dominator      @  PC=0x1470 (_1.ptx:915) mov.f32 %f153, 0f3d4ccccd;   // 0.05
GPGPU-Sim PTX: 16 (potential) branch divergence @  PC=0x1450 (_1.ptx:908) bra.uni $Lt_10_49154;
GPGPU-Sim PTX:    immediate post dominator      @  PC=0x1470 (_1.ptx:915) mov.f32 %f153, 0f3d4ccccd;   // 0.05
GPGPU-Sim PTX: 17 (potential) branch divergence @  PC=0x1578 (_1.ptx:949) @!%p13 bra $Lt_10_58114;
GPGPU-Sim PTX:    immediate post dominator      @  PC=0x2080 (_1.ptx:1388) add.f32 %f399, %f126, %f126;
GPGPU-Sim PTX: 18 (potential) branch divergence @  PC=0x15c0 (_1.ptx:961) @%p14 bra $Lt_10_49922;
GPGPU-Sim PTX:    immediate post dominator      @  PC=0x17b0 (_1.ptx:1039) mov.f32 %f221, 0f00000000;   // 0
GPGPU-Sim PTX: 19 (potential) branch divergence @  PC=0x15e0 (_1.ptx:966) @!%p15 bra $Lt_10_50434;
GPGPU-Sim PTX:    immediate post dominator      @  PC=0x1638 (_1.ptx:982) mov.f32 %f190, %f183;
GPGPU-Sim PTX: 20 (potential) branch divergence @  PC=0x15f0 (_1.ptx:968) bra.uni $Lt_10_50178;
GPGPU-Sim PTX:    immediate post dominator      @  PC=0x1638 (_1.ptx:982) mov.f32 %f190, %f183;
GPGPU-Sim PTX: 21 (potential) branch divergence @  PC=0x1640 (_1.ptx:983) bra.uni $Lt_10_49666;
GPGPU-Sim PTX:    immediate post dominator      @  PC=0x17b0 (_1.ptx:1039) mov.f32 %f221, 0f00000000;   // 0
GPGPU-Sim PTX: 22 (potential) branch divergence @  PC=0x1738 (_1.ptx:1016) @%p18 bra $Lt_10_50946;
GPGPU-Sim PTX:    immediate post dominator      @  PC=0x17a8 (_1.ptx:1036) mov.f32 %f190, %f214;
GPGPU-Sim PTX: 23 (potential) branch divergence @  PC=0x1748 (_1.ptx:1018) bra.uni $Lt_10_51202;
GPGPU-Sim PTX:    immediate post dominator      @  PC=0x17a8 (_1.ptx:1036) mov.f32 %f190, %f214;
GPGPU-Sim PTX: 24 (potential) branch divergence @  PC=0x1768 (_1.ptx:1023) @!%p19 bra $Lt_10_51458;
GPGPU-Sim PTX:    immediate post dominator      @  PC=0x17a8 (_1.ptx:1036) mov.f32 %f190, %f214;
GPGPU-Sim PTX: 25 (potential) branch divergence @  PC=0x1778 (_1.ptx:1025) bra.uni $Lt_10_51202;
GPGPU-Sim PTX:    immediate post dominator      @  PC=0x17a8 (_1.ptx:1036) mov.f32 %f190, %f214;
GPGPU-Sim PTX: 26 (potential) branch divergence @  PC=0x17c0 (_1.ptx:1041) @!%p20 bra $Lt_10_58370;
GPGPU-Sim PTX:    immediate post dominator      @  PC=0x1828 (_1.ptx:1057) add.s32 %r50, %r50, 1;
GPGPU-Sim PTX: 27 (potential) branch divergence @  PC=0x1818 (_1.ptx:1052) @!%p21 bra $Lt_10_58370;
GPGPU-Sim PTX:    immediate post dominator      @  PC=0x1828 (_1.ptx:1057) add.s32 %r50, %r50, 1;
GPGPU-Sim PTX: 28 (potential) branch divergence @  PC=0x1848 (_1.ptx:1061) @%p22 bra $Lt_10_58882;
GPGPU-Sim PTX:    immediate post dominator      @  PC=0x1880 (_1.ptx:1071) @!%p23 bra $Lt_10_58114;
GPGPU-Sim PTX: 29 (potential) branch divergence @  PC=0x1860 (_1.ptx:1064) @%p23 bra $L_10_42498;
GPGPU-Sim PTX:    immediate post dominator      @  PC=0x1880 (_1.ptx:1071) @!%p23 bra $Lt_10_58114;
GPGPU-Sim PTX: 30 (potential) branch divergence @  PC=0x1868 (_1.ptx:1065) bra.uni $L_10_43266;
GPGPU-Sim PTX:    immediate post dominator      @  PC=0x1880 (_1.ptx:1071) @!%p23 bra $Lt_10_58114;
GPGPU-Sim PTX: 31 (potential) branch divergence @  PC=0x1880 (_1.ptx:1071) @!%p23 bra $Lt_10_58114;
GPGPU-Sim PTX:    immediate post dominator      @  PC=0x2080 (_1.ptx:1388) add.f32 %f399, %f126, %f126;
GPGPU-Sim PTX: 32 (potential) branch divergence @  PC=0x19c8 (_1.ptx:1115) @!%p24 bra $Lt_10_51714;
GPGPU-Sim PTX:    immediate post dominator      @  PC=0x2040 (_1.ptx:1375) mov.f32 %f394, 0f3f4ccccd;   // 0.8
GPGPU-Sim PTX: 33 (potential) branch divergence @  PC=0x19d8 (_1.ptx:1118) bra.uni $LDWendi___isnanf_192_1;
GPGPU-Sim PTX:    immediate post dominator      @  PC=0x2040 (_1.ptx:1375) mov.f32 %f394, 0f3f4ccccd;   // 0.8
GPGPU-Sim PTX: 34 (potential) branch divergence @  PC=0x19f8 (_1.ptx:1124) @!%p25 bra $Lt_10_7682;
GPGPU-Sim PTX:    immediate post dominator      @  PC=0x2040 (_1.ptx:1375) mov.f32 %f394, 0f3f4ccccd;   // 0.8
GPGPU-Sim PTX: 35 (potential) branch divergence @  PC=0x1a00 (_1.ptx:1125) bra.uni $Lt_10_7938;
GPGPU-Sim PTX:    immediate post dominator      @  PC=0x1a20 (_1.ptx:1133) mov.f32 %f272, 0f7f800000;   // ((1.0F)/(0.0F))
GPGPU-Sim PTX: 36 (potential) branch divergence @  PC=0x1a18 (_1.ptx:1130) bra.uni $LDWendi___isnanf_192_1;
GPGPU-Sim PTX:    immediate post dominator      @  PC=0x2040 (_1.ptx:1375) mov.f32 %f394, 0f3f4ccccd;   // 0.8
GPGPU-Sim PTX: 37 (potential) branch divergence @  PC=0x1a30 (_1.ptx:1135) @!%p26 bra $Lt_10_52226;
GPGPU-Sim PTX:    immediate post dominator      @  PC=0x2040 (_1.ptx:1375) mov.f32 %f394, 0f3f4ccccd;   // 0.8
GPGPU-Sim PTX: 38 (potential) branch divergence @  PC=0x1a40 (_1.ptx:1138) bra.uni $LDWendi___isnanf_192_1;
GPGPU-Sim PTX:    immediate post dominator      @  PC=0x2040 (_1.ptx:1375) mov.f32 %f394, 0f3f4ccccd;   // 0.8
GPGPU-Sim PTX: 39 (potential) branch divergence @  PC=0x1a58 (_1.ptx:1142) @!%p27 bra $Lt_10_52738;
GPGPU-Sim PTX:    immediate post dominator      @  PC=0x2040 (_1.ptx:1375) mov.f32 %f394, 0f3f4ccccd;   // 0.8
GPGPU-Sim PTX: 40 (potential) branch divergence @  PC=0x1ab8 (_1.ptx:1155) bra.uni $LDWendi___isnanf_192_1;
GPGPU-Sim PTX:    immediate post dominator      @  PC=0x2040 (_1.ptx:1375) mov.f32 %f394, 0f3f4ccccd;   // 0.8
GPGPU-Sim PTX: 41 (potential) branch divergence @  PC=0x1ad0 (_1.ptx:1159) @!%p29 bra $Lt_10_53250;
GPGPU-Sim PTX:    immediate post dominator      @  PC=0x2040 (_1.ptx:1375) mov.f32 %f394, 0f3f4ccccd;   // 0.8
GPGPU-Sim PTX: 42 (potential) branch divergence @  PC=0x1b20 (_1.ptx:1170) @!%p30 bra $Lt_10_53762;
GPGPU-Sim PTX:    immediate post dominator      @  PC=0x1b40 (_1.ptx:1177) mov.f32 %f268, %f284;
GPGPU-Sim PTX: 43 (potential) branch divergence @  PC=0x1b48 (_1.ptx:1178) bra.uni $LDWendi___isnanf_192_1;
GPGPU-Sim PTX:    immediate post dominator      @  PC=0x2040 (_1.ptx:1375) mov.f32 %f394, 0f3f4ccccd;   // 0.8
GPGPU-Sim PTX: 44 (potential) branch divergence @  PC=0x1b60 (_1.ptx:1183) @!%p31 bra $Lt_10_59394;
GPGPU-Sim PTX:    immediate post dominator      @  PC=0x2040 (_1.ptx:1375) mov.f32 %f394, 0f3f4ccccd;   // 0.8
GPGPU-Sim PTX: 45 (potential) branch divergence @  PC=0x1b88 (_1.ptx:1188) @!%p32 bra $Lt_10_59394;
GPGPU-Sim PTX:    immediate post dominator      @  PC=0x2040 (_1.ptx:1375) mov.f32 %f394, 0f3f4ccccd;   // 0.8
GPGPU-Sim PTX: 46 (potential) branch divergence @  PC=0x1ba0 (_1.ptx:1192) bra.uni $LDWendi___isnanf_192_1;
GPGPU-Sim PTX:    immediate post dominator      @  PC=0x2040 (_1.ptx:1375) mov.f32 %f394, 0f3f4ccccd;   // 0.8
GPGPU-Sim PTX: 47 (potential) branch divergence @  PC=0x1bd8 (_1.ptx:1202) @%p33 bra $Lt_10_54530;
GPGPU-Sim PTX:    immediate post dominator      @  PC=0x1c20 (_1.ptx:1216) sub.s32 %r64, %r64, 127;
GPGPU-Sim PTX: 48 (potential) branch divergence @  PC=0x1c10 (_1.ptx:1211) bra.uni $Lt_10_54274;
GPGPU-Sim PTX:    immediate post dominator      @  PC=0x1c20 (_1.ptx:1216) sub.s32 %r64, %r64, 127;
GPGPU-Sim PTX: 49 (potential) branch divergence @  PC=0x1c58 (_1.ptx:1224) @!%p34 bra $Lt_10_54786;
GPGPU-Sim PTX:    immediate post dominator      @  PC=0x1c78 (_1.ptx:1232) mov.f32 %f302, 0fbf800000;   // -1
GPGPU-Sim PTX: 50 (potential) branch divergence @  PC=0x1eb0 (_1.ptx:1312) @%p35 bra $Lt_10_55298;
GPGPU-Sim PTX:    immediate post dominator      @  PC=0x1ed8 (_1.ptx:1321) mov.f32 %f367, %f365;
GPGPU-Sim PTX: 51 (potential) branch divergence @  PC=0x1f98 (_1.ptx:1346) @!%p38 bra $Lt_10_55810;
GPGPU-Sim PTX:    immediate post dominator      @  PC=0x1fa8 (_1.ptx:1351) mov.f32 %f284, %f386;
GPGPU-Sim PTX: 52 (potential) branch divergence @  PC=0x2018 (_1.ptx:1365) @%p39 bra $Lt_10_56322;
GPGPU-Sim PTX:    immediate post dominator      @  PC=0x2038 (_1.ptx:1372) mov.f32 %f268, %f284;
GPGPU-Sim PTX: 53 (potential) branch divergence @  PC=0x2158 (_1.ptx:1419) @%p40 bra $L_10_42242;
GPGPU-Sim PTX:    immediate post dominator      @  PC=0x2170 (_1.ptx:1424) sub.s32 %r86, %r24, 1;
GPGPU-Sim PTX: 54 (potential) branch divergence @  PC=0x2168 (_1.ptx:1421) @%p41 bra $L_10_41474;
GPGPU-Sim PTX:    immediate post dominator      @  PC=0x2170 (_1.ptx:1424) sub.s32 %r86, %r24, 1;
GPGPU-Sim PTX: 55 (potential) branch divergence @  PC=0x2190 (_1.ptx:1428) @%p42 bra $Lt_10_56834;
GPGPU-Sim PTX:    immediate post dominator      @  PC=0x2288 (_1.ptx:1464) ld.global.u32 %r92, [%rd4+0];
GPGPU-Sim PTX: 56 (potential) branch divergence @  PC=0x2280 (_1.ptx:1461) @%p43 bra $Lt_10_57346;
GPGPU-Sim PTX:    immediate post dominator      @  PC=0x2288 (_1.ptx:1464) ld.global.u32 %r92, [%rd4+0];
GPGPU-Sim PTX: ... end of reconvergence points for _Z6renderPjP4Nodejjff
GPGPU-Sim PTX: ... done pre-decoding instructions for '_Z6renderPjP4Nodejjff'.
GPGPU-Sim PTX: instruction assembly for function '_ZN4dim3C1Ejjj'...   done.
GPGPU-Sim PTX: finding reconvergence points for '_ZN4dim3C1Ejjj'...
GPGPU-Sim PTX: Finding dominators for '_ZN4dim3C1Ejjj'...
GPGPU-Sim PTX: Finding immediate dominators for '_ZN4dim3C1Ejjj'...
GPGPU-Sim PTX: Finding postdominators for '_ZN4dim3C1Ejjj'...
GPGPU-Sim PTX: Finding immediate postdominators for '_ZN4dim3C1Ejjj'...
GPGPU-Sim PTX: pre-decoding instructions for '_ZN4dim3C1Ejjj'...
GPGPU-Sim PTX: reconvergence points for _ZN4dim3C1Ejjj...
GPGPU-Sim PTX: ... end of reconvergence points for _ZN4dim3C1Ejjj
GPGPU-Sim PTX: ... done pre-decoding instructions for '_ZN4dim3C1Ejjj'.
GPGPU-Sim PTX: finished parsing EMBEDDED .ptx file _1.ptx
Adding _cuobjdump_1.ptx with cubin handle 1
GPGPU-Sim PTX: extracting embedded .ptx to temporary file "_ptx_rg5Tj1"
Running: cat _ptx_rg5Tj1 | sed 's/.version 1.5/.version 1.4/' | sed 's/, texmode_independent//' | sed 's/\(\.extern \.const\[1\] .b8 \w\+\)\[\]/\1\[1\]/' | sed 's/const\[.\]/const\[0\]/g' > _ptx2_JB3swX
GPGPU-Sim PTX: generating ptxinfo using "$CUDA_INSTALL_PATH/bin/ptxas --gpu-name=sm_20 -v _ptx2_JB3swX --output-file  /dev/null 2> _ptx_rg5Tj1info"
GPGPU-Sim PTX: Kernel '_Z6renderPjP4Nodejjff' : regs=45, lmem=4, smem=0, cmem=180
GPGPU-Sim PTX: removing ptxinfo using "rm -f _ptx_rg5Tj1 _ptx2_JB3swX _ptx_rg5Tj1info"
GPGPU-Sim PTX: loading globals with explicit initializers... 
GPGPU-Sim PTX: finished loading globals (0 bytes total).
GPGPU-Sim PTX: loading constants with explicit initializers...  done.
GPGPU-Sim PTX: __cudaRegisterVar: hostVar = 0x62fda0; deviceAddress = MView; deviceName = MView
GPGPU-Sim PTX: __cudaRegisterVar: Registering const memory space of 48 bytes
GPGPU-Sim PTX registering constant MView (48 bytes) to name mapping
GPGPU-Sim PTX: __cudaRegisterVar: hostVar = 0x62fde0; deviceAddress = cnode; deviceName = cnode
GPGPU-Sim PTX: __cudaRegisterVar: Registering const memory space of 160 bytes
GPGPU-Sim PTX registering constant cnode (160 bytes) to name mapping
GPGPU-Sim PTX: cudaMemcpyToSymbol: symbol = 0x62fde0
GPGPU-Sim PTX: starting gpgpu_ptx_sim_memcpy_symbol with hostVar 0x0x62fde0
GPGPU-Sim PTX: gpgpu_ptx_sim_memcpy_symbol: Found PTX symbol w/ hostVar=0x62fde0
GPGPU-Sim PTX: gpgpu_ptx_sim_memcpy_symbol: copying const memory 160 bytes  to  symbol cnode+0 @0x100 ...
GPGPU-Sim PTX: cudaMemcpyToSymbol: symbol = 0x62fda0
GPGPU-Sim PTX: starting gpgpu_ptx_sim_memcpy_symbol with hostVar 0x0x62fda0
GPGPU-Sim PTX: gpgpu_ptx_sim_memcpy_symbol: Found PTX symbol w/ hostVar=0x62fda0
GPGPU-Sim PTX: gpgpu_ptx_sim_memcpy_symbol: copying const memory 48 bytes  to  symbol MView+0 @0x200 ...

GPGPU-Sim PTX: cudaLaunch for 0x0x40ce13 (mode=performance simulation) on stream 0
GPGPU-Sim PTX: pushing kernel '_Z6renderPjP4Nodejjff' to stream 0, gridDim= (16,32,1) blockDim = (16,8,1) 
kernel '_Z6renderPjP4Nodejjff' transfer to GPU hardware scheduler
GPGPU-Sim uArch: Shader 1 bind to kernel 1 '_Z6renderPjP4Nodejjff'
GPGPU-Sim uArch: CTA/core = 5, limited by: regs
GPGPU-Sim uArch: core:  1, cta: 0 initialized @(1,0)
GPGPU-Sim uArch: Shader 2 bind to kernel 1 '_Z6renderPjP4Nodejjff'
GPGPU-Sim uArch: core:  2, cta: 0 initialized @(1,0)
GPGPU-Sim uArch: Shader 3 bind to kernel 1 '_Z6renderPjP4Nodejjff'
GPGPU-Sim uArch: core:  3, cta: 0 initialized @(1,0)
GPGPU-Sim uArch: Shader 4 bind to kernel 1 '_Z6renderPjP4Nodejjff'
GPGPU-Sim uArch: core:  4, cta: 0 initialized @(1,0)
GPGPU-Sim uArch: Shader 5 bind to kernel 1 '_Z6renderPjP4Nodejjff'
GPGPU-Sim uArch: core:  5, cta: 0 initialized @(1,0)
GPGPU-Sim uArch: Shader 6 bind to kernel 1 '_Z6renderPjP4Nodejjff'
GPGPU-Sim uArch: core:  6, cta: 0 initialized @(1,0)
GPGPU-Sim uArch: Shader 7 bind to kernel 1 '_Z6renderPjP4Nodejjff'
GPGPU-Sim uArch: core:  7, cta: 0 initialized @(1,0)
GPGPU-Sim uArch: Shader 8 bind to kernel 1 '_Z6renderPjP4Nodejjff'
GPGPU-Sim uArch: core:  8, cta: 0 initialized @(1,0)
GPGPU-Sim uArch: Shader 9 bind to kernel 1 '_Z6renderPjP4Nodejjff'
GPGPU-Sim uArch: core:  9, cta: 0 initialized @(1,0)
GPGPU-Sim uArch: Shader 10 bind to kernel 1 '_Z6renderPjP4Nodejjff'
GPGPU-Sim uArch: core: 10, cta: 0 initialized @(1,0)
GPGPU-Sim uArch: Shader 11 bind to kernel 1 '_Z6renderPjP4Nodejjff'
GPGPU-Sim uArch: core: 11, cta: 0 initialized @(1,0)
GPGPU-Sim uArch: Shader 12 bind to kernel 1 '_Z6renderPjP4Nodejjff'
GPGPU-Sim uArch: core: 12, cta: 0 initialized @(1,0)
GPGPU-Sim uArch: Shader 13 bind to kernel 1 '_Z6renderPjP4Nodejjff'
GPGPU-Sim uArch: core: 13, cta: 0 initialized @(1,0)
GPGPU-Sim uArch: Shader 14 bind to kernel 1 '_Z6renderPjP4Nodejjff'
GPGPU-Sim uArch: core: 14, cta: 0 initialized @(1,0)
GPGPU-Sim uArch: Shader 0 bind to kernel 1 '_Z6renderPjP4Nodejjff'
GPGPU-Sim uArch: core:  0, cta: 0 initialized @(1,0)
GPGPU-Sim uArch: core:  1, cta: 1 initialized @(2,0)
GPGPU-Sim uArch: core:  2, cta: 1 initialized @(2,0)
GPGPU-Sim uArch: core:  3, cta: 1 initialized @(2,0)
GPGPU-Sim uArch: core:  4, cta: 1 initialized @(2,0)
GPGPU-Sim uArch: core:  5, cta: 1 initialized @(2,0)
GPGPU-Sim uArch: core:  6, cta: 1 initialized @(2,0)
GPGPU-Sim uArch: core:  7, cta: 1 initialized @(2,0)
GPGPU-Sim uArch: core:  8, cta: 1 initialized @(2,0)
GPGPU-Sim uArch: core:  9, cta: 1 initialized @(2,0)
GPGPU-Sim uArch: core: 10, cta: 1 initialized @(2,0)
GPGPU-Sim uArch: core: 11, cta: 1 initialized @(2,0)
GPGPU-Sim uArch: core: 12, cta: 1 initialized @(2,0)
GPGPU-Sim uArch: core: 13, cta: 1 initialized @(2,0)
GPGPU-Sim uArch: core: 14, cta: 1 initialized @(2,0)
GPGPU-Sim uArch: core:  0, cta: 1 initialized @(2,0)
GPGPU-Sim uArch: core:  1, cta: 2 initialized @(3,0)
GPGPU-Sim uArch: core:  2, cta: 2 initialized @(3,0)
GPGPU-Sim uArch: core:  3, cta: 2 initialized @(3,0)
GPGPU-Sim uArch: core:  4, cta: 2 initialized @(3,0)
GPGPU-Sim uArch: core:  5, cta: 2 initialized @(3,0)
GPGPU-Sim uArch: core:  6, cta: 2 initialized @(3,0)
GPGPU-Sim uArch: core:  7, cta: 2 initialized @(3,0)
GPGPU-Sim uArch: core:  8, cta: 2 initialized @(3,0)
GPGPU-Sim uArch: core:  9, cta: 2 initialized @(3,0)
GPGPU-Sim uArch: core: 10, cta: 2 initialized @(3,0)
GPGPU-Sim uArch: core: 11, cta: 2 initialized @(3,0)
GPGPU-Sim uArch: core: 12, cta: 2 initialized @(3,0)
GPGPU-Sim uArch: core: 13, cta: 2 initialized @(3,0)
GPGPU-Sim uArch: core: 14, cta: 2 initialized @(3,0)
GPGPU-Sim uArch: core:  0, cta: 2 initialized @(3,0)
GPGPU-Sim uArch: core:  1, cta: 3 initialized @(4,0)
GPGPU-Sim uArch: core:  2, cta: 3 initialized @(4,0)
GPGPU-Sim uArch: core:  3, cta: 3 initialized @(4,0)
GPGPU-Sim uArch: core:  4, cta: 3 initialized @(4,0)
GPGPU-Sim uArch: core:  5, cta: 3 initialized @(4,0)
GPGPU-Sim uArch: core:  6, cta: 3 initialized @(4,0)
GPGPU-Sim uArch: core:  7, cta: 3 initialized @(4,0)
GPGPU-Sim uArch: core:  8, cta: 3 initialized @(4,0)
GPGPU-Sim uArch: core:  9, cta: 3 initialized @(4,0)
GPGPU-Sim uArch: core: 10, cta: 3 initialized @(4,0)
GPGPU-Sim uArch: core: 11, cta: 3 initialized @(4,0)
GPGPU-Sim uArch: core: 12, cta: 3 initialized @(4,0)
GPGPU-Sim uArch: core: 13, cta: 3 initialized @(4,0)
GPGPU-Sim uArch: core: 14, cta: 3 initialized @(4,0)
GPGPU-Sim uArch: core:  0, cta: 3 initialized @(4,0)
GPGPU-Sim uArch: core:  1, cta: 4 initialized @(5,0)
GPGPU-Sim uArch: core:  2, cta: 4 initialized @(5,0)
GPGPU-Sim uArch: core:  3, cta: 4 initialized @(5,0)
GPGPU-Sim uArch: core:  4, cta: 4 initialized @(5,0)
GPGPU-Sim uArch: core:  5, cta: 4 initialized @(5,0)
GPGPU-Sim uArch: core:  6, cta: 4 initialized @(5,0)
GPGPU-Sim uArch: core:  7, cta: 4 initialized @(5,0)
GPGPU-Sim uArch: core:  8, cta: 4 initialized @(5,0)
GPGPU-Sim uArch: core:  9, cta: 4 initialized @(5,0)
GPGPU-Sim uArch: core: 10, cta: 4 initialized @(5,0)
GPGPU-Sim uArch: core: 11, cta: 4 initialized @(5,0)
GPGPU-Sim uArch: core: 12, cta: 4 initialized @(5,0)
GPGPU-Sim uArch: core: 13, cta: 4 initialized @(5,0)
GPGPU-Sim uArch: core: 14, cta: 4 initialized @(5,0)
GPGPU-Sim uArch: core:  0, cta: 4 initialized @(5,0)
GPGPU-Sim uArch: cycles simulated: 500  inst.: 35328 (ipc=70.7) sim_rate=17664 (inst/sec) elapsed = 0:0:00:02 / Sun Feb 28 20:30:19 2016
GPGPU-Sim uArch: cycles simulated: 3500  inst.: 76896 (ipc=22.0) sim_rate=25632 (inst/sec) elapsed = 0:0:00:03 / Sun Feb 28 20:30:20 2016
GPGPU-Sim PTX: 100000 instructions simulated : ctaid=(1,0,0) tid=(15,5,0)
GPGPU-Sim uArch: cycles simulated: 6500  inst.: 111616 (ipc=17.2) sim_rate=27904 (inst/sec) elapsed = 0:0:00:04 / Sun Feb 28 20:30:21 2016
GPGPU-Sim uArch: cycles simulated: 9500  inst.: 168160 (ipc=17.7) sim_rate=33632 (inst/sec) elapsed = 0:0:00:05 / Sun Feb 28 20:30:22 2016
GPGPU-Sim PTX: 200000 instructions simulated : ctaid=(12,0,0) tid=(15,1,0)
GPGPU-Sim uArch: cycles simulated: 12500  inst.: 241856 (ipc=19.3) sim_rate=40309 (inst/sec) elapsed = 0:0:00:06 / Sun Feb 28 20:30:23 2016
GPGPU-Sim PTX: 300000 instructions simulated : ctaid=(3,0,0) tid=(15,1,0)
GPGPU-Sim uArch: cycles simulated: 15000  inst.: 336288 (ipc=22.4) sim_rate=48041 (inst/sec) elapsed = 0:0:00:07 / Sun Feb 28 20:30:24 2016
GPGPU-Sim PTX: 400000 instructions simulated : ctaid=(1,0,0) tid=(15,7,0)
GPGPU-Sim uArch: cycles simulated: 17500  inst.: 492672 (ipc=28.2) sim_rate=61584 (inst/sec) elapsed = 0:0:00:08 / Sun Feb 28 20:30:25 2016
GPGPU-Sim PTX: 500000 instructions simulated : ctaid=(11,1,0) tid=(15,1,0)
GPGPU-Sim PTX: 600000 instructions simulated : ctaid=(10,4,0) tid=(15,1,0)
GPGPU-Sim uArch: cycles simulated: 20500  inst.: 658112 (ipc=32.1) sim_rate=73123 (inst/sec) elapsed = 0:0:00:09 / Sun Feb 28 20:30:26 2016
GPGPU-Sim PTX: 700000 instructions simulated : ctaid=(3,3,0) tid=(15,5,0)
GPGPU-Sim PTX: 800000 instructions simulated : ctaid=(14,3,0) tid=(15,1,0)
GPGPU-Sim uArch: cycles simulated: 23000  inst.: 814272 (ipc=35.4) sim_rate=81427 (inst/sec) elapsed = 0:0:00:10 / Sun Feb 28 20:30:27 2016
GPGPU-Sim PTX: 900000 instructions simulated : ctaid=(2,2,0) tid=(15,3,0)
GPGPU-Sim PTX: 1000000 instructions simulated : ctaid=(4,0,0) tid=(15,3,0)
GPGPU-Sim uArch: cycles simulated: 25500  inst.: 1040064 (ipc=40.8) sim_rate=94551 (inst/sec) elapsed = 0:0:00:11 / Sun Feb 28 20:30:28 2016
GPGPU-Sim PTX: 1100000 instructions simulated : ctaid=(3,4,0) tid=(15,3,0)
GPGPU-Sim PTX: 1200000 instructions simulated : ctaid=(7,3,0) tid=(15,7,0)
GPGPU-Sim PTX: 1300000 instructions simulated : ctaid=(6,1,0) tid=(15,1,0)
GPGPU-Sim PTX: 1400000 instructions simulated : ctaid=(2,2,0) tid=(15,5,0)
GPGPU-Sim uArch: cycles simulated: 27500  inst.: 1411264 (ipc=51.3) sim_rate=117605 (inst/sec) elapsed = 0:0:00:12 / Sun Feb 28 20:30:29 2016
GPGPU-Sim PTX: 1500000 instructions simulated : ctaid=(12,2,0) tid=(15,3,0)
GPGPU-Sim PTX: 1600000 instructions simulated : ctaid=(11,1,0) tid=(15,5,0)
GPGPU-Sim PTX: 1700000 instructions simulated : ctaid=(15,0,0) tid=(15,1,0)
GPGPU-Sim PTX: 1800000 instructions simulated : ctaid=(1,1,0) tid=(15,5,0)
GPGPU-Sim uArch: cycles simulated: 29000  inst.: 1766016 (ipc=60.9) sim_rate=135847 (inst/sec) elapsed = 0:0:00:13 / Sun Feb 28 20:30:30 2016
GPGPU-Sim PTX: 1900000 instructions simulated : ctaid=(3,1,0) tid=(15,5,0)
GPGPU-Sim PTX: 2000000 instructions simulated : ctaid=(1,2,0) tid=(15,1,0)
GPGPU-Sim PTX: 2100000 instructions simulated : ctaid=(2,1,0) tid=(15,1,0)
GPGPU-Sim PTX: 2200000 instructions simulated : ctaid=(7,2,0) tid=(15,1,0)
GPGPU-Sim PTX: 2300000 instructions simulated : ctaid=(14,2,0) tid=(15,7,0)
GPGPU-Sim PTX: 2400000 instructions simulated : ctaid=(2,3,0) tid=(15,5,0)
GPGPU-Sim PTX: 2500000 instructions simulated : ctaid=(13,0,0) tid=(15,5,0)
GPGPU-Sim uArch: cycles simulated: 30500  inst.: 2502464 (ipc=82.0) sim_rate=178747 (inst/sec) elapsed = 0:0:00:14 / Sun Feb 28 20:30:31 2016
GPGPU-Sim PTX: 2600000 instructions simulated : ctaid=(14,1,0) tid=(15,7,0)
GPGPU-Sim PTX: 2700000 instructions simulated : ctaid=(14,3,0) tid=(15,7,0)
GPGPU-Sim PTX: 2800000 instructions simulated : ctaid=(10,4,0) tid=(15,5,0)
GPGPU-Sim PTX: 2900000 instructions simulated : ctaid=(1,4,0) tid=(15,7,0)
GPGPU-Sim PTX: 3000000 instructions simulated : ctaid=(6,4,0) tid=(15,3,0)
GPGPU-Sim uArch: cycles simulated: 31500  inst.: 3016096 (ipc=95.7) sim_rate=201073 (inst/sec) elapsed = 0:0:00:15 / Sun Feb 28 20:30:32 2016
GPGPU-Sim PTX: 3100000 instructions simulated : ctaid=(13,3,0) tid=(15,1,0)
GPGPU-Sim PTX: 3200000 instructions simulated : ctaid=(4,4,0) tid=(15,5,0)
GPGPU-Sim PTX: 3300000 instructions simulated : ctaid=(8,4,0) tid=(15,7,0)
GPGPU-Sim PTX: 3400000 instructions simulated : ctaid=(7,4,0) tid=(15,5,0)
GPGPU-Sim PTX: 3500000 instructions simulated : ctaid=(6,4,0) tid=(15,3,0)
GPGPU-Sim PTX: 3600000 instructions simulated : ctaid=(14,3,0) tid=(15,1,0)
GPGPU-Sim uArch: cycles simulated: 33000  inst.: 3538688 (ipc=107.2) sim_rate=221168 (inst/sec) elapsed = 0:0:00:16 / Sun Feb 28 20:30:33 2016
GPGPU-Sim PTX: 3700000 instructions simulated : ctaid=(9,2,0) tid=(15,3,0)
GPGPU-Sim PTX: 3800000 instructions simulated : ctaid=(7,2,0) tid=(15,7,0)
GPGPU-Sim uArch: cycles simulated: 34000  inst.: 3802496 (ipc=111.8) sim_rate=223676 (inst/sec) elapsed = 0:0:00:17 / Sun Feb 28 20:30:34 2016
GPGPU-Sim PTX: 3900000 instructions simulated : ctaid=(14,3,0) tid=(15,7,0)
GPGPU-Sim PTX: 4000000 instructions simulated : ctaid=(6,1,0) tid=(15,1,0)
GPGPU-Sim PTX: 4100000 instructions simulated : ctaid=(12,1,0) tid=(15,7,0)
GPGPU-Sim PTX: 4200000 instructions simulated : ctaid=(7,4,0) tid=(15,7,0)
GPGPU-Sim PTX: 4300000 instructions simulated : ctaid=(5,3,0) tid=(15,7,0)
GPGPU-Sim PTX: 4400000 instructions simulated : ctaid=(1,0,0) tid=(15,7,0)
GPGPU-Sim uArch: cycles simulated: 36500  inst.: 4336480 (ipc=118.8) sim_rate=240915 (inst/sec) elapsed = 0:0:00:18 / Sun Feb 28 20:30:35 2016
GPGPU-Sim PTX: 4500000 instructions simulated : ctaid=(12,2,0) tid=(15,7,0)
GPGPU-Sim PTX: 4600000 instructions simulated : ctaid=(5,4,0) tid=(12,6,0)
GPGPU-Sim PTX: 4700000 instructions simulated : ctaid=(10,1,0) tid=(8,4,0)
GPGPU-Sim PTX: 4800000 instructions simulated : ctaid=(5,3,0) tid=(15,2,0)
GPGPU-Sim PTX: 4900000 instructions simulated : ctaid=(4,2,0) tid=(15,4,0)
GPGPU-Sim PTX: 5000000 instructions simulated : ctaid=(6,1,0) tid=(15,2,0)
GPGPU-Sim uArch: cycles simulated: 37500  inst.: 4931984 (ipc=131.5) sim_rate=259578 (inst/sec) elapsed = 0:0:00:19 / Sun Feb 28 20:30:36 2016
GPGPU-Sim PTX: 5100000 instructions simulated : ctaid=(5,4,0) tid=(15,2,0)
GPGPU-Sim PTX: 5200000 instructions simulated : ctaid=(12,0,0) tid=(15,2,0)
GPGPU-Sim PTX: 5300000 instructions simulated : ctaid=(2,1,0) tid=(15,4,0)
GPGPU-Sim PTX: 5400000 instructions simulated : ctaid=(6,3,0) tid=(15,0,0)
GPGPU-Sim PTX: 5500000 instructions simulated : ctaid=(5,0,0) tid=(2,4,0)
GPGPU-Sim PTX: 5600000 instructions simulated : ctaid=(8,3,0) tid=(1,1,0)
GPGPU-Sim PTX: 5700000 instructions simulated : ctaid=(9,3,0) tid=(4,1,0)
GPGPU-Sim PTX: 5800000 instructions simulated : ctaid=(4,3,0) tid=(15,4,0)
GPGPU-Sim uArch: cycles simulated: 38500  inst.: 5677311 (ipc=147.5) sim_rate=283865 (inst/sec) elapsed = 0:0:00:20 / Sun Feb 28 20:30:37 2016
GPGPU-Sim PTX: 5900000 instructions simulated : ctaid=(0,4,0) tid=(11,7,0)
GPGPU-Sim PTX: 6000000 instructions simulated : ctaid=(1,1,0) tid=(5,5,0)
GPGPU-Sim PTX: 6100000 instructions simulated : ctaid=(15,0,0) tid=(11,7,0)
GPGPU-Sim PTX: 6200000 instructions simulated : ctaid=(4,3,0) tid=(11,7,0)
GPGPU-Sim uArch: cycles simulated: 39500  inst.: 6054788 (ipc=153.3) sim_rate=288323 (inst/sec) elapsed = 0:0:00:21 / Sun Feb 28 20:30:38 2016
GPGPU-Sim PTX: 6300000 instructions simulated : ctaid=(9,4,0) tid=(11,7,0)
GPGPU-Sim PTX: 6400000 instructions simulated : ctaid=(9,2,0) tid=(11,7,0)
GPGPU-Sim PTX: 6500000 instructions simulated : ctaid=(4,4,0) tid=(0,1,0)
GPGPU-Sim PTX: 6600000 instructions simulated : ctaid=(7,0,0) tid=(11,5,0)
GPGPU-Sim uArch: cycles simulated: 41500  inst.: 6496804 (ipc=156.5) sim_rate=295309 (inst/sec) elapsed = 0:0:00:22 / Sun Feb 28 20:30:39 2016
GPGPU-Sim PTX: 6700000 instructions simulated : ctaid=(7,2,0) tid=(11,5,0)
GPGPU-Sim PTX: 6800000 instructions simulated : ctaid=(5,1,0) tid=(11,1,0)
GPGPU-Sim PTX: 6900000 instructions simulated : ctaid=(3,0,0) tid=(11,5,0)
GPGPU-Sim PTX: 7000000 instructions simulated : ctaid=(7,2,0) tid=(11,3,0)
GPGPU-Sim uArch: cycles simulated: 42500  inst.: 6821284 (ipc=160.5) sim_rate=296577 (inst/sec) elapsed = 0:0:00:23 / Sun Feb 28 20:30:40 2016
GPGPU-Sim PTX: 7100000 instructions simulated : ctaid=(4,0,0) tid=(11,1,0)
GPGPU-Sim PTX: 7200000 instructions simulated : ctaid=(10,1,0) tid=(11,3,0)
GPGPU-Sim PTX: 7300000 instructions simulated : ctaid=(15,3,0) tid=(11,1,0)
GPGPU-Sim PTX: 7400000 instructions simulated : ctaid=(5,2,0) tid=(11,7,0)
GPGPU-Sim PTX: 7500000 instructions simulated : ctaid=(1,2,0) tid=(11,1,0)
GPGPU-Sim uArch: cycles simulated: 44000  inst.: 7372868 (ipc=167.6) sim_rate=307202 (inst/sec) elapsed = 0:0:00:24 / Sun Feb 28 20:30:41 2016
GPGPU-Sim PTX: 7600000 instructions simulated : ctaid=(13,2,0) tid=(11,1,0)
GPGPU-Sim PTX: 7700000 instructions simulated : ctaid=(4,4,0) tid=(11,3,0)
GPGPU-Sim PTX: 7800000 instructions simulated : ctaid=(3,3,0) tid=(11,1,0)
GPGPU-Sim PTX: 7900000 instructions simulated : ctaid=(10,2,0) tid=(11,5,0)
GPGPU-Sim PTX: 8000000 instructions simulated : ctaid=(5,2,0) tid=(11,5,0)
GPGPU-Sim uArch: cycles simulated: 45500  inst.: 7831364 (ipc=172.1) sim_rate=313254 (inst/sec) elapsed = 0:0:00:25 / Sun Feb 28 20:30:42 2016
GPGPU-Sim PTX: 8100000 instructions simulated : ctaid=(6,1,0) tid=(11,7,0)
GPGPU-Sim PTX: 8200000 instructions simulated : ctaid=(9,1,0) tid=(11,7,0)
GPGPU-Sim PTX: 8300000 instructions simulated : ctaid=(10,0,0) tid=(11,5,0)
GPGPU-Sim PTX: 8400000 instructions simulated : ctaid=(10,0,0) tid=(11,3,0)
GPGPU-Sim PTX: 8500000 instructions simulated : ctaid=(14,2,0) tid=(11,7,0)
GPGPU-Sim PTX: 8600000 instructions simulated : ctaid=(3,0,0) tid=(11,7,0)
GPGPU-Sim PTX: 8700000 instructions simulated : ctaid=(4,1,0) tid=(13,2,0)
GPGPU-Sim PTX: 8800000 instructions simulated : ctaid=(1,3,0) tid=(13,0,0)
GPGPU-Sim PTX: 8900000 instructions simulated : ctaid=(1,2,0) tid=(11,1,0)
GPGPU-Sim uArch: cycles simulated: 47000  inst.: 8697124 (ipc=185.0) sim_rate=334504 (inst/sec) elapsed = 0:0:00:26 / Sun Feb 28 20:30:43 2016
GPGPU-Sim PTX: 9000000 instructions simulated : ctaid=(9,2,0) tid=(3,2,0)
GPGPU-Sim PTX: 9100000 instructions simulated : ctaid=(5,0,0) tid=(10,0,0)
GPGPU-Sim PTX: 9200000 instructions simulated : ctaid=(1,4,0) tid=(4,5,0)
GPGPU-Sim PTX: 9300000 instructions simulated : ctaid=(8,0,0) tid=(7,1,0)
GPGPU-Sim uArch: cycles simulated: 47500  inst.: 9098546 (ipc=191.5) sim_rate=336983 (inst/sec) elapsed = 0:0:00:27 / Sun Feb 28 20:30:44 2016
GPGPU-Sim PTX: 9400000 instructions simulated : ctaid=(7,3,0) tid=(11,4,0)
GPGPU-Sim PTX: 9500000 instructions simulated : ctaid=(13,0,0) tid=(6,3,0)
GPGPU-Sim PTX: 9600000 instructions simulated : ctaid=(2,4,0) tid=(7,1,0)
GPGPU-Sim PTX: 9700000 instructions simulated : ctaid=(10,4,0) tid=(15,3,0)
GPGPU-Sim PTX: 9800000 instructions simulated : ctaid=(1,4,0) tid=(12,4,0)
GPGPU-Sim PTX: 9900000 instructions simulated : ctaid=(7,1,0) tid=(6,0,0)
GPGPU-Sim PTX: 10000000 instructions simulated : ctaid=(7,3,0) tid=(10,3,0)
GPGPU-Sim uArch: cycles simulated: 48500  inst.: 9755057 (ipc=201.1) sim_rate=348394 (inst/sec) elapsed = 0:0:00:28 / Sun Feb 28 20:30:45 2016
GPGPU-Sim PTX: 10100000 instructions simulated : ctaid=(9,4,0) tid=(3,7,0)
GPGPU-Sim PTX: 10200000 instructions simulated : ctaid=(4,1,0) tid=(5,3,0)
GPGPU-Sim PTX: 10300000 instructions simulated : ctaid=(8,2,0) tid=(2,1,0)
GPGPU-Sim PTX: 10400000 instructions simulated : ctaid=(8,4,0) tid=(8,2,0)
GPGPU-Sim uArch: cycles simulated: 50000  inst.: 10147267 (ipc=202.9) sim_rate=349905 (inst/sec) elapsed = 0:0:00:29 / Sun Feb 28 20:30:46 2016
GPGPU-Sim uArch: Shader 14 finished CTA #0 (50087,0), 4 CTAs running
GPGPU-Sim uArch: core: 14, cta: 0 initialized @(50088,0)
GPGPU-Sim uArch: Shader 0 finished CTA #1 (50113,0), 4 CTAs running
GPGPU-Sim uArch: core:  0, cta: 1 initialized @(50114,0)
GPGPU-Sim uArch: Shader 9 finished CTA #3 (50115,0), 4 CTAs running
GPGPU-Sim uArch: core:  9, cta: 3 initialized @(50116,0)
GPGPU-Sim uArch: Shader 9 finished CTA #4 (50130,0), 4 CTAs running
GPGPU-Sim uArch: core:  9, cta: 4 initialized @(50131,0)
GPGPU-Sim uArch: Shader 8 finished CTA #3 (50141,0), 4 CTAs running
GPGPU-Sim uArch: core:  8, cta: 3 initialized @(50142,0)
GPGPU-Sim uArch: Shader 8 finished CTA #2 (50149,0), 4 CTAs running
GPGPU-Sim uArch: core:  8, cta: 2 initialized @(50150,0)
GPGPU-Sim uArch: Shader 1 finished CTA #1 (50167,0), 4 CTAs running
GPGPU-Sim uArch: core:  1, cta: 1 initialized @(50168,0)
GPGPU-Sim uArch: Shader 6 finished CTA #3 (50173,0), 4 CTAs running
GPGPU-Sim uArch: core:  6, cta: 3 initialized @(50174,0)
GPGPU-Sim uArch: Shader 6 finished CTA #2 (50182,0), 4 CTAs running
GPGPU-Sim uArch: core:  6, cta: 2 initialized @(50183,0)
GPGPU-Sim uArch: Shader 1 finished CTA #0 (50187,0), 4 CTAs running
GPGPU-Sim uArch: core:  1, cta: 0 initialized @(50188,0)
GPGPU-Sim uArch: Shader 3 finished CTA #0 (50193,0), 4 CTAs running
GPGPU-Sim uArch: core:  3, cta: 0 initialized @(50194,0)
GPGPU-Sim uArch: Shader 0 finished CTA #3 (50207,0), 4 CTAs running
GPGPU-Sim uArch: core:  0, cta: 3 initialized @(50208,0)
GPGPU-Sim uArch: Shader 3 finished CTA #1 (50211,0), 4 CTAs running
GPGPU-Sim uArch: Shader 8 finished CTA #4 (50211,0), 4 CTAs running
GPGPU-Sim uArch: core:  3, cta: 1 initialized @(50212,0)
GPGPU-Sim uArch: core:  8, cta: 4 initialized @(50212,0)
GPGPU-Sim uArch: Shader 0 finished CTA #0 (50212,0), 4 CTAs running
GPGPU-Sim uArch: core:  0, cta: 0 initialized @(50213,0)
GPGPU-Sim uArch: Shader 4 finished CTA #2 (50220,0), 4 CTAs running
GPGPU-Sim uArch: core:  4, cta: 2 initialized @(50221,0)
GPGPU-Sim uArch: Shader 0 finished CTA #2 (50223,0), 4 CTAs running
GPGPU-Sim uArch: core:  0, cta: 2 initialized @(50224,0)
GPGPU-Sim uArch: Shader 2 finished CTA #1 (50235,0), 4 CTAs running
GPGPU-Sim uArch: core:  2, cta: 1 initialized @(50236,0)
GPGPU-Sim uArch: Shader 1 finished CTA #4 (50243,0), 4 CTAs running
GPGPU-Sim uArch: core:  1, cta: 4 initialized @(50244,0)
GPGPU-Sim uArch: Shader 4 finished CTA #1 (50247,0), 4 CTAs running
GPGPU-Sim uArch: core:  4, cta: 1 initialized @(50248,0)
GPGPU-Sim uArch: Shader 1 finished CTA #2 (50251,0), 4 CTAs running
GPGPU-Sim uArch: Shader 7 finished CTA #3 (50251,0), 4 CTAs running
GPGPU-Sim uArch: core:  7, cta: 3 initialized @(50252,0)
GPGPU-Sim uArch: core:  1, cta: 2 initialized @(50252,0)
GPGPU-Sim PTX: 10500000 instructions simulated : ctaid=(6,4,0) tid=(9,6,0)
GPGPU-Sim uArch: Shader 1 finished CTA #3 (50263,0), 4 CTAs running
GPGPU-Sim uArch: core:  1, cta: 3 initialized @(50264,0)
GPGPU-Sim uArch: Shader 4 finished CTA #4 (50275,0), 4 CTAs running
GPGPU-Sim uArch: core:  4, cta: 4 initialized @(50276,0)
GPGPU-Sim uArch: Shader 6 finished CTA #4 (50278,0), 4 CTAs running
GPGPU-Sim uArch: core:  6, cta: 4 initialized @(50279,0)
GPGPU-Sim uArch: Shader 2 finished CTA #0 (50286,0), 4 CTAs running
GPGPU-Sim uArch: core:  2, cta: 0 initialized @(50287,0)
GPGPU-Sim uArch: Shader 2 finished CTA #2 (50294,0), 4 CTAs running
GPGPU-Sim uArch: Shader 3 finished CTA #2 (50294,0), 4 CTAs running
GPGPU-Sim uArch: core:  3, cta: 2 initialized @(50295,0)
GPGPU-Sim uArch: core:  2, cta: 2 initialized @(50295,0)
GPGPU-Sim uArch: Shader 10 finished CTA #4 (50302,0), 4 CTAs running
GPGPU-Sim uArch: core: 10, cta: 4 initialized @(50303,0)
GPGPU-Sim uArch: Shader 4 finished CTA #3 (50307,0), 4 CTAs running
GPGPU-Sim uArch: core:  4, cta: 3 initialized @(50308,0)
GPGPU-Sim uArch: Shader 2 finished CTA #4 (50310,0), 4 CTAs running
GPGPU-Sim uArch: core:  2, cta: 4 initialized @(50311,0)
GPGPU-Sim uArch: Shader 0 finished CTA #4 (50320,0), 4 CTAs running
GPGPU-Sim uArch: core:  0, cta: 4 initialized @(50321,0)
GPGPU-Sim uArch: Shader 7 finished CTA #4 (50327,0), 4 CTAs running
GPGPU-Sim uArch: core:  7, cta: 4 initialized @(50328,0)
GPGPU-Sim uArch: Shader 2 finished CTA #3 (50386,0), 4 CTAs running
GPGPU-Sim uArch: core:  2, cta: 3 initialized @(50387,0)
GPGPU-Sim uArch: Shader 3 finished CTA #4 (50419,0), 4 CTAs running
GPGPU-Sim uArch: core:  3, cta: 4 initialized @(50420,0)
GPGPU-Sim uArch: Shader 3 finished CTA #3 (50430,0), 4 CTAs running
GPGPU-Sim uArch: core:  3, cta: 3 initialized @(50431,0)
GPGPU-Sim uArch: Shader 5 finished CTA #2 (50468,0), 4 CTAs running
GPGPU-Sim uArch: core:  5, cta: 2 initialized @(50469,0)
GPGPU-Sim uArch: Shader 5 finished CTA #3 (50513,0), 4 CTAs running
GPGPU-Sim uArch: core:  5, cta: 3 initialized @(50514,0)
GPGPU-Sim PTX: 10600000 instructions simulated : ctaid=(4,1,0) tid=(8,1,0)
GPGPU-Sim uArch: Shader 5 finished CTA #4 (50621,0), 4 CTAs running
GPGPU-Sim uArch: core:  5, cta: 4 initialized @(50622,0)
GPGPU-Sim PTX: 10700000 instructions simulated : ctaid=(6,3,0) tid=(6,7,0)
GPGPU-Sim uArch: cycles simulated: 51000  inst.: 10450885 (ipc=204.9) sim_rate=348362 (inst/sec) elapsed = 0:0:00:30 / Sun Feb 28 20:30:47 2016
GPGPU-Sim PTX: 10800000 instructions simulated : ctaid=(7,6,0) tid=(4,7,0)
GPGPU-Sim PTX: 10900000 instructions simulated : ctaid=(4,1,0) tid=(1,3,0)
GPGPU-Sim PTX: 11000000 instructions simulated : ctaid=(11,5,0) tid=(10,0,0)
GPGPU-Sim uArch: cycles simulated: 52000  inst.: 10806248 (ipc=207.8) sim_rate=348588 (inst/sec) elapsed = 0:0:00:31 / Sun Feb 28 20:30:48 2016
GPGPU-Sim PTX: 11100000 instructions simulated : ctaid=(9,4,0) tid=(0,5,0)
GPGPU-Sim PTX: 11200000 instructions simulated : ctaid=(7,0,0) tid=(10,1,0)
GPGPU-Sim PTX: 11300000 instructions simulated : ctaid=(6,0,0) tid=(7,5,0)
GPGPU-Sim PTX: 11400000 instructions simulated : ctaid=(3,6,0) tid=(0,3,0)
GPGPU-Sim PTX: 11500000 instructions simulated : ctaid=(0,5,0) tid=(6,2,0)
GPGPU-Sim uArch: cycles simulated: 53000  inst.: 11261290 (ipc=212.5) sim_rate=351915 (inst/sec) elapsed = 0:0:00:32 / Sun Feb 28 20:30:49 2016
GPGPU-Sim PTX: 11600000 instructions simulated : ctaid=(2,6,0) tid=(3,3,0)
GPGPU-Sim PTX: 11700000 instructions simulated : ctaid=(12,6,0) tid=(14,5,0)
GPGPU-Sim PTX: 11800000 instructions simulated : ctaid=(9,3,0) tid=(8,7,0)
GPGPU-Sim PTX: 11900000 instructions simulated : ctaid=(8,5,0) tid=(13,0,0)
GPGPU-Sim PTX: 12000000 instructions simulated : ctaid=(13,4,0) tid=(11,3,0)
GPGPU-Sim PTX: 12100000 instructions simulated : ctaid=(8,3,0) tid=(9,0,0)
GPGPU-Sim uArch: cycles simulated: 54000  inst.: 11787778 (ipc=218.3) sim_rate=357205 (inst/sec) elapsed = 0:0:00:33 / Sun Feb 28 20:30:50 2016
GPGPU-Sim PTX: 12200000 instructions simulated : ctaid=(13,5,0) tid=(12,5,0)
GPGPU-Sim PTX: 12300000 instructions simulated : ctaid=(1,5,0) tid=(2,3,0)
GPGPU-Sim uArch: Shader 14 finished CTA #2 (54335,0), 4 CTAs running
GPGPU-Sim uArch: core: 14, cta: 2 initialized @(54336,0)
GPGPU-Sim PTX: 12400000 instructions simulated : ctaid=(13,6,0) tid=(0,7,0)
GPGPU-Sim PTX: 12500000 instructions simulated : ctaid=(1,5,0) tid=(3,1,0)
GPGPU-Sim PTX: 12600000 instructions simulated : ctaid=(9,2,0) tid=(2,0,0)
GPGPU-Sim PTX: 12700000 instructions simulated : ctaid=(5,6,0) tid=(3,0,0)
GPGPU-Sim uArch: cycles simulated: 55000  inst.: 12395845 (ipc=225.4) sim_rate=364583 (inst/sec) elapsed = 0:0:00:34 / Sun Feb 28 20:30:51 2016
GPGPU-Sim uArch: Shader 7 finished CTA #2 (55058,0), 4 CTAs running
GPGPU-Sim uArch: core:  7, cta: 2 initialized @(55059,0)
GPGPU-Sim PTX: 12800000 instructions simulated : ctaid=(9,4,0) tid=(10,2,0)
GPGPU-Sim PTX: 12900000 instructions simulated : ctaid=(12,5,0) tid=(8,1,0)
GPGPU-Sim PTX: 13000000 instructions simulated : ctaid=(14,4,0) tid=(7,0,0)
GPGPU-Sim PTX: 13100000 instructions simulated : ctaid=(6,2,0) tid=(14,6,0)
GPGPU-Sim PTX: 13200000 instructions simulated : ctaid=(1,6,0) tid=(10,7,0)
GPGPU-Sim PTX: 13300000 instructions simulated : ctaid=(10,5,0) tid=(4,4,0)
GPGPU-Sim uArch: cycles simulated: 56000  inst.: 12954604 (ipc=231.3) sim_rate=370131 (inst/sec) elapsed = 0:0:00:35 / Sun Feb 28 20:30:52 2016
GPGPU-Sim PTX: 13400000 instructions simulated : ctaid=(12,4,0) tid=(3,2,0)
GPGPU-Sim PTX: 13500000 instructions simulated : ctaid=(11,6,0) tid=(3,6,0)
GPGPU-Sim PTX: 13600000 instructions simulated : ctaid=(7,0,0) tid=(8,1,0)
GPGPU-Sim PTX: 13700000 instructions simulated : ctaid=(9,3,0) tid=(5,2,0)
GPGPU-Sim PTX: 13800000 instructions simulated : ctaid=(2,6,0) tid=(6,2,0)
GPGPU-Sim uArch: cycles simulated: 57000  inst.: 13465208 (ipc=236.2) sim_rate=374033 (inst/sec) elapsed = 0:0:00:36 / Sun Feb 28 20:30:53 2016
GPGPU-Sim PTX: 13900000 instructions simulated : ctaid=(7,5,0) tid=(1,3,0)
GPGPU-Sim PTX: 14000000 instructions simulated : ctaid=(7,0,0) tid=(14,0,0)
GPGPU-Sim PTX: 14100000 instructions simulated : ctaid=(1,6,0) tid=(14,6,0)
GPGPU-Sim PTX: 14200000 instructions simulated : ctaid=(10,5,0) tid=(0,0,0)
GPGPU-Sim PTX: 14300000 instructions simulated : ctaid=(1,5,0) tid=(0,2,0)
GPGPU-Sim uArch: cycles simulated: 58000  inst.: 13971857 (ipc=240.9) sim_rate=377617 (inst/sec) elapsed = 0:0:00:37 / Sun Feb 28 20:30:54 2016
GPGPU-Sim PTX: 14400000 instructions simulated : ctaid=(3,5,0) tid=(9,2,0)
GPGPU-Sim PTX: 14500000 instructions simulated : ctaid=(6,6,0) tid=(2,0,0)
GPGPU-Sim PTX: 14600000 instructions simulated : ctaid=(15,6,0) tid=(1,0,0)
GPGPU-Sim PTX: 14700000 instructions simulated : ctaid=(1,6,0) tid=(10,6,0)
GPGPU-Sim PTX: 14800000 instructions simulated : ctaid=(9,3,0) tid=(3,1,0)
GPGPU-Sim PTX: 14900000 instructions simulated : ctaid=(6,2,0) tid=(13,7,0)
GPGPU-Sim uArch: cycles simulated: 59000  inst.: 14553277 (ipc=246.7) sim_rate=382980 (inst/sec) elapsed = 0:0:00:38 / Sun Feb 28 20:30:55 2016
GPGPU-Sim PTX: 15000000 instructions simulated : ctaid=(7,5,0) tid=(0,0,0)
GPGPU-Sim PTX: 15100000 instructions simulated : ctaid=(1,6,0) tid=(1,6,0)
GPGPU-Sim PTX: 15200000 instructions simulated : ctaid=(14,6,0) tid=(15,4,0)
GPGPU-Sim PTX: 15300000 instructions simulated : ctaid=(13,5,0) tid=(7,3,0)
GPGPU-Sim PTX: 15400000 instructions simulated : ctaid=(12,4,0) tid=(13,2,0)
GPGPU-Sim PTX: 15500000 instructions simulated : ctaid=(12,0,0) tid=(5,2,0)
GPGPU-Sim uArch: cycles simulated: 60000  inst.: 15100184 (ipc=251.7) sim_rate=387184 (inst/sec) elapsed = 0:0:00:39 / Sun Feb 28 20:30:56 2016
GPGPU-Sim PTX: 15600000 instructions simulated : ctaid=(10,0,0) tid=(11,4,0)
GPGPU-Sim PTX: 15700000 instructions simulated : ctaid=(10,0,0) tid=(12,4,0)
GPGPU-Sim PTX: 15800000 instructions simulated : ctaid=(10,6,0) tid=(1,5,0)
GPGPU-Sim PTX: 15900000 instructions simulated : ctaid=(2,6,0) tid=(13,7,0)
GPGPU-Sim uArch: cycles simulated: 61000  inst.: 15567154 (ipc=255.2) sim_rate=389178 (inst/sec) elapsed = 0:0:00:40 / Sun Feb 28 20:30:57 2016
GPGPU-Sim PTX: 16000000 instructions simulated : ctaid=(3,0,0) tid=(14,0,0)
GPGPU-Sim PTX: 16100000 instructions simulated : ctaid=(7,1,0) tid=(4,2,0)
GPGPU-Sim uArch: Shader 13 finished CTA #2 (61430,0), 4 CTAs running
GPGPU-Sim uArch: core: 13, cta: 2 initialized @(61431,0)
GPGPU-Sim PTX: 16200000 instructions simulated : ctaid=(15,6,0) tid=(9,0,0)
GPGPU-Sim PTX: 16300000 instructions simulated : ctaid=(6,2,0) tid=(14,7,0)
GPGPU-Sim uArch: Shader 14 finished CTA #3 (61790,0), 4 CTAs running
GPGPU-Sim uArch: core: 14, cta: 3 initialized @(61791,0)
GPGPU-Sim PTX: 16400000 instructions simulated : ctaid=(9,5,0) tid=(10,3,0)
GPGPU-Sim uArch: cycles simulated: 62000  inst.: 16025353 (ipc=258.5) sim_rate=390862 (inst/sec) elapsed = 0:0:00:41 / Sun Feb 28 20:30:58 2016
GPGPU-Sim PTX: 16500000 instructions simulated : ctaid=(3,6,0) tid=(10,1,0)
GPGPU-Sim PTX: 16600000 instructions simulated : ctaid=(11,4,0) tid=(15,3,0)
GPGPU-Sim PTX: 16700000 instructions simulated : ctaid=(0,7,0) tid=(7,2,0)
GPGPU-Sim PTX: 16800000 instructions simulated : ctaid=(9,5,0) tid=(9,2,0)
GPGPU-Sim PTX: 16900000 instructions simulated : ctaid=(9,2,0) tid=(0,3,0)
GPGPU-Sim uArch: cycles simulated: 63000  inst.: 16470797 (ipc=261.4) sim_rate=392161 (inst/sec) elapsed = 0:0:00:42 / Sun Feb 28 20:30:59 2016
GPGPU-Sim PTX: 17000000 instructions simulated : ctaid=(1,5,0) tid=(9,5,0)
GPGPU-Sim PTX: 17100000 instructions simulated : ctaid=(11,5,0) tid=(2,4,0)
GPGPU-Sim PTX: 17200000 instructions simulated : ctaid=(2,6,0) tid=(10,2,0)
GPGPU-Sim uArch: Shader 5 finished CTA #1 (63706,0), 4 CTAs running
GPGPU-Sim uArch: core:  5, cta: 1 initialized @(63707,0)
GPGPU-Sim uArch: Shader 4 finished CTA #0 (63758,0), 4 CTAs running
GPGPU-Sim uArch: core:  4, cta: 0 initialized @(63759,0)
GPGPU-Sim PTX: 17300000 instructions simulated : ctaid=(9,2,0) tid=(7,4,0)
GPGPU-Sim uArch: cycles simulated: 64000  inst.: 16935022 (ipc=264.6) sim_rate=393837 (inst/sec) elapsed = 0:0:00:43 / Sun Feb 28 20:31:00 2016
GPGPU-Sim PTX: 17400000 instructions simulated : ctaid=(1,5,0) tid=(3,0,0)
GPGPU-Sim PTX: 17500000 instructions simulated : ctaid=(14,5,0) tid=(2,6,0)
GPGPU-Sim PTX: 17600000 instructions simulated : ctaid=(4,7,0) tid=(9,7,0)
GPGPU-Sim PTX: 17700000 instructions simulated : ctaid=(8,2,0) tid=(1,4,0)
GPGPU-Sim uArch: Shader 6 finished CTA #2 (64795,0), 4 CTAs running
GPGPU-Sim uArch: core:  6, cta: 2 initialized @(64796,0)
GPGPU-Sim uArch: Shader 6 finished CTA #3 (64813,0), 4 CTAs running
GPGPU-Sim uArch: core:  6, cta: 3 initialized @(64814,0)
GPGPU-Sim PTX: 17800000 instructions simulated : ctaid=(1,6,0) tid=(5,0,0)
GPGPU-Sim uArch: cycles simulated: 65000  inst.: 17364389 (ipc=267.1) sim_rate=394645 (inst/sec) elapsed = 0:0:00:44 / Sun Feb 28 20:31:01 2016
GPGPU-Sim PTX: 17900000 instructions simulated : ctaid=(12,4,0) tid=(11,3,0)
GPGPU-Sim PTX: 18000000 instructions simulated : ctaid=(3,7,0) tid=(15,3,0)
GPGPU-Sim uArch: Shader 6 finished CTA #1 (65368,0), 4 CTAs running
GPGPU-Sim uArch: core:  6, cta: 1 initialized @(65369,0)
GPGPU-Sim uArch: Shader 12 finished CTA #3 (65434,0), 4 CTAs running
GPGPU-Sim uArch: core: 12, cta: 3 initialized @(65435,0)
GPGPU-Sim PTX: 18100000 instructions simulated : ctaid=(0,5,0) tid=(6,0,0)
GPGPU-Sim PTX: 18200000 instructions simulated : ctaid=(11,1,0) tid=(6,7,0)
GPGPU-Sim uArch: Shader 10 finished CTA #3 (65793,0), 4 CTAs running
GPGPU-Sim uArch: core: 10, cta: 3 initialized @(65794,0)
GPGPU-Sim PTX: 18300000 instructions simulated : ctaid=(15,4,0) tid=(0,3,0)
GPGPU-Sim uArch: Shader 7 finished CTA #3 (65990,0), 4 CTAs running
GPGPU-Sim uArch: core:  7, cta: 3 initialized @(65991,0)
GPGPU-Sim uArch: Shader 7 finished CTA #4 (65997,0), 4 CTAs running
GPGPU-Sim uArch: core:  7, cta: 4 initialized @(65998,0)
GPGPU-Sim uArch: cycles simulated: 66000  inst.: 17842991 (ipc=270.3) sim_rate=396510 (inst/sec) elapsed = 0:0:00:45 / Sun Feb 28 20:31:02 2016
GPGPU-Sim uArch: Shader 9 finished CTA #3 (66044,0), 4 CTAs running
GPGPU-Sim uArch: core:  9, cta: 3 initialized @(66045,0)
GPGPU-Sim PTX: 18400000 instructions simulated : ctaid=(4,5,0) tid=(11,0,0)
GPGPU-Sim uArch: Shader 13 finished CTA #0 (66162,0), 4 CTAs running
GPGPU-Sim uArch: core: 13, cta: 0 initialized @(66163,0)
GPGPU-Sim uArch: Shader 9 finished CTA #4 (66216,0), 4 CTAs running
GPGPU-Sim uArch: core:  9, cta: 4 initialized @(66217,0)
GPGPU-Sim uArch: Shader 13 finished CTA #1 (66298,0), 4 CTAs running
GPGPU-Sim uArch: core: 13, cta: 1 initialized @(66299,0)
GPGPU-Sim PTX: 18500000 instructions simulated : ctaid=(13,6,0) tid=(13,7,0)
GPGPU-Sim uArch: Shader 13 finished CTA #3 (66389,0), 4 CTAs running
GPGPU-Sim uArch: core: 13, cta: 3 initialized @(66390,0)
GPGPU-Sim uArch: Shader 14 finished CTA #0 (66458,0), 4 CTAs running
GPGPU-Sim uArch: core: 14, cta: 0 initialized @(66459,0)
GPGPU-Sim uArch: Shader 14 finished CTA #1 (66470,0), 4 CTAs running
GPGPU-Sim uArch: core: 14, cta: 1 initialized @(66471,0)
[...]
mrq_lat_table:10132 	172 	181 	422 	2358 	3223 	4085 	4672 	4716 	2022 	241 	20 	0 	0 	0 	0 	0 	0 	0 	0 	0 	0 	0 	0 	0 	0 	0 	0 	0 	0 	0 	0 	
dq_lat_table:0 	0 	0 	0 	0 	0 	0 	0 	0 	0 	0 	0 	0 	0 	0 	0 	0 	0 	0 	0 	0 	0 	0 	0 	0 	0 	0 	0 	0 	0 	0 	0 	
mf_lat_table:0 	0 	0 	0 	0 	0 	0 	47299 	7606 	2505 	2748 	3653 	220 	0 	0 	0 	0 	0 	0 	0 	0 	0 	0 	0 	0 	0 	0 	0 	0 	0 	0 	0 	
icnt2mem_lat_table:0 	0 	0 	20711 	13066 	13538 	27574 	1773 	1094 	2283 	2073 	134 	0 	0 	0 	0 	0 	0 	0 	0 	0 	0 	0 	0 	
icnt2sh_lat_table:0 	0 	0 	5074 	4069 	1861 	231 	0 	0 	69 	140 	313 	778 	1790 	3509 	9063 	22775 	14359 	0 	0 	0 	0 	0 	0 	
mf_lat_pw_table:0 	0 	0 	0 	0 	0 	0 	203 	39 	3 	18 	47 	0 	0 	0 	0 	0 	0 	0 	0 	0 	0 	0 	0 	0 	0 	0 	0 	0 	0 	0 	0 	
maximum concurrent accesses to same row:
dram[0]:        46        56        36        34        26        20        41        24        31        29        33        30        15        18        51        27 
dram[1]:        52        54        34        32        18        22        40        45        28        23        19        26        24        24        36        30 
dram[2]:        62        62        60        56        30        28        28        41        32        27        26        16        30        28        32        38 
dram[3]:        60        62        60        58        26        28        42        47        34        22        32        15        25        29        46        29 
dram[4]:        62        64        60        54        34        32        44        23        26        26        18        16        21        20        38        28 
dram[5]:        62        62        58        56        32        32        29        42        22        24        17        29        19        46        17        43 
maximum service time to same row:
dram[0]:     15955     12739     18465     19791     17013     17724     17330     21465     18894     20608     21084     25909     22450     23469     44290     33345 
dram[1]:     15564     17217     18489     19502     18100     18110     17902     17282     18294     17878     34480     41763     23425     30981     20928     21647 
dram[2]:     16966     16505     18345     31453     21712     16711     18237     27366     19414     20364     37774     23795     50624     29900     36979     40185 
dram[3]:     17060     28728     34822     31121     18337     18435     20322     17431     20000     24502     39340     20679     30129     28238     35947     19181 
dram[4]:     19628     25528     18466     29531     19440     19009     18176     17925     19729     18928     50230     21519     30781     29154     23732     20340 
dram[5]:     19757     21007     18465     29506     18113     18491     18211     18119     18771     19505     39444     22071     31722     31076     20755     30947 
average row accesses per activate:
dram[0]:  5.732143  5.600000  5.294117  5.000000  3.931035  3.685393  4.500000  3.774194  3.900000  4.325301  4.024692  3.943182  3.381818  4.413333  5.652174  5.370370 
dram[1]:  4.433735  5.843137  5.054545  4.872727  3.303571  3.535714  3.540000  3.648936  3.458647  3.913043  3.418367  4.628572  4.048077  3.988636  4.220588  4.754098 
dram[2]:  5.566667  6.836735  7.550000  7.325000  4.034883  4.378049  3.609091  4.493827  4.488889  3.918367  4.364865  3.686869  5.000000  4.658228  5.093750  5.937500 
dram[3]:  5.903846  6.745098  8.741936  8.823529  4.342466  3.357798  4.671233  3.910891  4.576923  3.771429  4.012987  3.445544  4.746479  4.256098  6.880952  4.162162 
dram[4]:  6.437500  6.612245  9.846154  6.511111  3.918605  3.690476  4.416667  4.111111  4.395349  3.850000  3.534091  3.726316  4.195122  4.493151  5.100000  4.794117 
dram[5]:  5.910714  6.733333  6.000000  5.700000  3.627451  3.901235  3.223077  4.011905  4.150000  4.095745  3.577320  4.712329  4.974026  5.227273  4.542857  4.984127 
average row locality = 32244/7259 = 4.441934
number of total memory accesses made:
dram[0]:         0         0         0         0         0         0         0         0         0         0         0         0         0         0         0         0 
dram[1]:         0         0         0         0         0         0         0         0         0         0         0         0         0         0         0         0 
dram[2]:         0         0         0         0         0         0         0         0         0         0         0         0         0         0         0         0 
dram[3]:         0         0         0         0         0         0         0         0         0         0         0         0         0         0         0         0 
dram[4]:         0         0         0         0         0         0         0         0         0         0         0         0         0         0         0         0 
dram[5]:         0         0         0         0         0         0         0         0         0         0         0         0         0         0         0         0 
total accesses: 0
min_bank_accesses = 0!
min_chip_accesses = 0!
number of total read accesses:
dram[0]:       147       137       117       125       139       135       134       142       153       141       130       138       152       140       114       126 
dram[1]:       160       128       118       116       151       124       143       134       180       146       136       126       169       146       122       122 
dram[2]:       145       146       129       127       145       145       159       147       159       153       133       147       146       158       138       119 
dram[3]:       136       147       116       129       128       152       136       159       142       153       121       144       140       151       120       129 
dram[4]:       137       141       114       128       136       127       128       149       152       155       125       146       147       142       113       137 
dram[5]:       143       134       143       123       154       127       165       136       158       157       144       134       157       149       134       130 
total reads: 13355
bank skew: 180/113 = 1.59
chip skew: 2296/2170 = 1.06
number of total write accesses:
dram[0]:       174       171       153       165       203       193       199       209       237       218       196       209       220       191       146       164 
dram[1]:       208       170       160       152       219       173       211       209       280       214       199       198       252       205       165       168 
dram[2]:       189       189       173       166       202       214       238       217       245       231       190       218       204       210       188       166 
dram[3]:       171       197       155       171       189       214       205       236       215       243       188       204       197       198       169       179 
dram[4]:       172       183       142       165       201       183       190       221       226       230       186       208       197       186       142       189 
dram[5]:       188       169       199       162       216       189       254       201       257       228       203       210       226       196       184       184 
total reads: 18889
bank skew: 280/142 = 1.97
chip skew: 3266/3021 = 1.08
average mf latency per bank:
dram[0]:        939       685      1078       839      1033       869      1188       890       864       814       960       840       821       853      1020       837
dram[1]:        778       739       894       922       801       881       914       934       634       773       820       890       672       768       837       841
dram[2]:        832       789      1057      1080      1036       972       959      1088       924       858       969       830       965       829       929       935
dram[3]:        740       770      1013      1028       898       859       993       890       870       772       872       816       825       820       875       809
dram[4]:        871       764      1289      1108      1111      1214      1325      1085       990       889      1051       940       980      1017      1107       885
dram[5]:        715       747       829       941       787       924       750       927       720       733       765       777       690       761       761       747
maximum mf latency per bank:
dram[0]:       3965      3343      4951      3071      4975      3871      4374      3206      4139      3532      4142      4078      4193      3130      3726      3752
dram[1]:       2976      3292      4007      3577      3643      3780      3081      4114      2933      3454      3240      3132      3273      3431      2973      3017
dram[2]:       4637      4424      6077      5481      4679      4802      4573      4214      4766      4511      3913      4298      4282      3789      4217      4124
dram[3]:       4305      4957      4830      5485      4513      4503      4218      4874      4430      4502      3238      4472      3607      3486      3182      4710
dram[4]:       4579      4738      5323      5377      4932      5225      5231      4679      5730      5458      4930      5206      5216      5344      4360      5077
dram[5]:       5092      4460      5353      5591      5598      4976      5322      4401      4959      5216      3730      4909      4441      3743      4031      4306

Number of Memory Banks Accessed per Memory Operation per Warp (from 0):
0	0	0	0	0	0	0	0	0	0	0	0	0	0	0	0	0	0	0	0	0	0	0	0	0	0	0	0	0	0	0	0	0	0	0	0	0	0	0	0	0	0	0	0	0	0	0	0	0	0	0	0	0	0	0	0	0	0	0	0	0	0	0	0	0	0	0	0	0	0	0	0	0	0	0	0	0	0	0	0	0	0	0	0	0	0	0	0	0	0	0	0	0	0	0	0	
Average # of Memory Banks Accessed per Memory Operation per Warp=-nan

position of mrq chosen
0	0	0	0	0	0	0	0	0	0	0	0	0	0	0	0	

average position of mrq chosen = -nan
Memory Partition 0: 
Cache L2_bank_000:
MSHR contents

Cache L2_bank_001:
MSHR contents

In Dram Latency Queue (total = 0): 
DRAM[0]: 16 bks, busW=1 BL=8 CL=12, tRRD=2 tCCD=6, tRCD=12 tRAS=28 tRP=12 tRC=40
n_cmd=217605 n_nop=175621 n_act=1200 n_pre=1184 n_req=5218 n_rd=17360 n_write=22240 bw_util=0.364
n_activity=110010 dram_eff=0.7199
bk0: 1176a 187802i bk1: 1096a 189034i bk2: 936a 186905i bk3: 1000a 185660i bk4: 1112a 178454i bk5: 1080a 175504i bk6: 1072a 173798i bk7: 1136a 174691i bk8: 1224a 182102i bk9: 1128a 181993i bk10: 1040a 179595i bk11: 1104a 179359i bk12: 1216a 176903i bk13: 1120a 180197i bk14: 912a 187603i bk15: 1008a 183076i 
dram_util_bins: 0 0 0 0 0 0 0 0 0 0
dram_eff_bins: 0 0 0 0 0 0 0 0 0 0
mrqq: max=16 avg=4.71903
Memory Partition 1: 
Cache L2_bank_002:
MSHR contents

Cache L2_bank_003:
MSHR contents

In Dram Latency Queue (total = 0): 
DRAM[1]: 16 bks, busW=1 BL=8 CL=12, tRRD=2 tCCD=6, tRCD=12 tRAS=28 tRP=12 tRC=40
n_cmd=217605 n_nop=173885 n_act=1348 n_pre=1332 n_req=5404 n_rd=17768 n_write=23272 bw_util=0.3772
n_activity=114407 dram_eff=0.7174
bk0: 1280a 181918i bk1: 1024a 186418i bk2: 944a 185379i bk3: 928a 187802i bk4: 1208a 173332i bk5: 992a 177455i bk6: 1144a 173876i bk7: 1072a 175485i bk8: 1440a 172829i bk9: 1168a 178940i bk10: 1088a 178429i bk11: 1008a 180929i bk12: 1352a 170078i bk13: 1168a 177669i bk14: 976a 182245i bk15: 976a 182763i 
dram_util_bins: 0 0 0 0 0 0 0 0 0 0
dram_eff_bins: 0 0 0 0 0 0 0 0 0 0
mrqq: max=16 avg=4.8395
Memory Partition 2: 
Cache L2_bank_004:
MSHR contents

Cache L2_bank_005:
MSHR contents

In Dram Latency Queue (total = 0): 
DRAM[2]: 16 bks, busW=1 BL=8 CL=12, tRRD=2 tCCD=6, tRCD=12 tRAS=28 tRP=12 tRC=40
n_cmd=217605 n_nop=173125 n_act=1170 n_pre=1154 n_req=5536 n_rd=18368 n_write=23788 bw_util=0.3875
n_activity=117243 dram_eff=0.7191
bk0: 1160a 187446i bk1: 1168a 186672i bk2: 1032a 184680i bk3: 1016a 186870i bk4: 1160a 175394i bk5: 1160a 174729i bk6: 1272a 172434i bk7: 1176a 172804i bk8: 1272a 176400i bk9: 1224a 177413i bk10: 1064a 181076i bk11: 1176a 179420i bk12: 1168a 177037i bk13: 1264a 175706i bk14: 1104a 178638i bk15: 952a 185684i 
dram_util_bins: 0 0 0 0 0 0 0 0 0 0
dram_eff_bins: 0 0 0 0 0 0 0 0 0 0
mrqq: max=16 avg=5.33104
Memory Partition 3: 
Cache L2_bank_006:
MSHR contents

Cache L2_bank_007:
MSHR contents

In Dram Latency Queue (total = 0): 
DRAM[3]: 16 bks, busW=1 BL=8 CL=12, tRRD=2 tCCD=6, tRCD=12 tRAS=28 tRP=12 tRC=40
n_cmd=217605 n_nop=174839 n_act=1154 n_pre=1138 n_req=5334 n_rd=17624 n_write=22850 bw_util=0.372
n_activity=113899 dram_eff=0.7107
bk0: 1088a 188580i bk1: 1176a 186737i bk2: 928a 190961i bk3: 1032a 185526i bk4: 1024a 181850i bk5: 1216a 175730i bk6: 1088a 178830i bk7: 1272a 173277i bk8: 1136a 179462i bk9: 1224a 177954i bk10: 968a 185169i bk11: 1152a 180882i bk12: 1120a 181677i bk13: 1208a 177865i bk14: 960a 184952i bk15: 1032a 181601i 
dram_util_bins: 0 0 0 0 0 0 0 0 0 0
dram_eff_bins: 0 0 0 0 0 0 0 0 0 0
mrqq: max=16 avg=5.05902
Memory Partition 4: 
Cache L2_bank_008:
MSHR contents

Cache L2_bank_009:
MSHR contents

In Dram Latency Queue (total = 0): 
DRAM[4]: 16 bks, busW=1 BL=8 CL=12, tRRD=2 tCCD=6, tRCD=12 tRAS=28 tRP=12 tRC=40
n_cmd=217605 n_nop=175875 n_act=1142 n_pre=1126 n_req=5198 n_rd=17416 n_write=22046 bw_util=0.3627
n_activity=111033 dram_eff=0.7108
bk0: 1096a 189332i bk1: 1128a 187351i bk2: 912a 188126i bk3: 1024a 188981i bk4: 1088a 176920i bk5: 1016a 177219i bk6: 1024a 176578i bk7: 1192a 173499i bk8: 1216a 178462i bk9: 1240a 178308i bk10: 1000a 182959i bk11: 1168a 180500i bk12: 1176a 177228i bk13: 1136a 179002i bk14: 904a 186467i bk15: 1096a 182380i 
dram_util_bins: 0 0 0 0 0 0 0 0 0 0
dram_eff_bins: 0 0 0 0 0 0 0 0 0 0
mrqq: max=16 avg=4.6556
Memory Partition 5: 
Cache L2_bank_010:
MSHR contents

Cache L2_bank_011:
MSHR contents

In Dram Latency Queue (total = 0): 
DRAM[5]: 16 bks, busW=1 BL=8 CL=12, tRRD=2 tCCD=6, tRCD=12 tRAS=28 tRP=12 tRC=40
n_cmd=217605 n_nop=172989 n_act=1245 n_pre=1229 n_req=5554 n_rd=18304 n_write=23838 bw_util=0.3873
n_activity=116916 dram_eff=0.7209
bk0: 1144a 187645i bk1: 1072a 188753i bk2: 1144a 183312i bk3: 984a 185460i bk4: 1232a 172212i bk5: 1016a 175446i bk6: 1320a 167418i bk7: 1088a 177020i bk8: 1264a 174767i bk9: 1256a 176441i bk10: 1152a 176690i bk11: 1072a 178888i bk12: 1256a 174679i bk13: 1192a 176692i bk14: 1072a 177822i bk15: 1040a 180349i 
dram_util_bins: 0 0 0 0 0 0 0 0 0 0
dram_eff_bins: 0 0 0 0 0 0 0 0 0 0
mrqq: max=16 avg=4.89529

========= L2 cache stats =========
L2_cache_bank[0]: Access = 6900, Miss = 1086, Miss_rate = 0.157, Pending_hits = 132, Reservation_fails = 2611
L2_cache_bank[1]: Access = 6953, Miss = 1084, Miss_rate = 0.156, Pending_hits = 119, Reservation_fails = 866
L2_cache_bank[2]: Access = 6900, Miss = 1179, Miss_rate = 0.171, Pending_hits = 123, Reservation_fails = 911
L2_cache_bank[3]: Access = 6866, Miss = 1042, Miss_rate = 0.152, Pending_hits = 124, Reservation_fails = 1769
L2_cache_bank[4]: Access = 6637, Miss = 1154, Miss_rate = 0.174, Pending_hits = 146, Reservation_fails = 1477
L2_cache_bank[5]: Access = 6855, Miss = 1142, Miss_rate = 0.167, Pending_hits = 131, Reservation_fails = 442
L2_cache_bank[6]: Access = 6780, Miss = 1039, Miss_rate = 0.153, Pending_hits = 145, Reservation_fails = 446
L2_cache_bank[7]: Access = 7005, Miss = 1164, Miss_rate = 0.166, Pending_hits = 128, Reservation_fails = 1413
L2_cache_bank[8]: Access = 6867, Miss = 1052, Miss_rate = 0.153, Pending_hits = 114, Reservation_fails = 388
L2_cache_bank[9]: Access = 6698, Miss = 1125, Miss_rate = 0.168, Pending_hits = 111, Reservation_fails = 369
L2_cache_bank[10]: Access = 6991, Miss = 1198, Miss_rate = 0.171, Pending_hits = 142, Reservation_fails = 377
L2_cache_bank[11]: Access = 6794, Miss = 1090, Miss_rate = 0.160, Pending_hits = 146, Reservation_fails = 459
L2_total_cache_accesses = 82246
L2_total_cache_misses = 13355
L2_total_cache_miss_rate = 0.1624
L2_total_cache_pending_hits = 1561
L2_total_cache_reservation_fails = 11528
L2_total_cache_breakdown:
	L2_cache_stats_breakdown[GLOBAL_ACC_R][HIT] = 3677
	L2_cache_stats_breakdown[GLOBAL_ACC_R][HIT_RESERVED] = 14
	L2_cache_stats_breakdown[GLOBAL_ACC_R][MISS] = 156
	L2_cache_stats_breakdown[GLOBAL_ACC_R][RESERVATION_FAIL] = 130
	L2_cache_stats_breakdown[LOCAL_ACC_R][HIT] = 6672
	L2_cache_stats_breakdown[LOCAL_ACC_R][HIT_RESERVED] = 266
	L2_cache_stats_breakdown[LOCAL_ACC_R][MISS] = 420
	L2_cache_stats_breakdown[CONST_ACC_R][HIT] = 22
	L2_cache_stats_breakdown[CONST_ACC_R][HIT_RESERVED] = 6
	L2_cache_stats_breakdown[CONST_ACC_R][MISS] = 2
	L2_cache_stats_breakdown[CONST_ACC_R][RESERVATION_FAIL] = 898
	L2_cache_stats_breakdown[GLOBAL_ACC_W][HIT] = 5072
	L2_cache_stats_breakdown[GLOBAL_ACC_W][HIT_RESERVED] = 1072
	L2_cache_stats_breakdown[GLOBAL_ACC_W][MISS] = 2048
	L2_cache_stats_breakdown[GLOBAL_ACC_W][RESERVATION_FAIL] = 14
	L2_cache_stats_breakdown[LOCAL_ACC_W][HIT] = 35191
	L2_cache_stats_breakdown[LOCAL_ACC_W][HIT_RESERVED] = 49
	L2_cache_stats_breakdown[LOCAL_ACC_W][MISS] = 9364
	L2_cache_stats_breakdown[LOCAL_ACC_W][RESERVATION_FAIL] = 51
	L2_cache_stats_breakdown[L1_WRBK_ACC][HIT] = 3686
	L2_cache_stats_breakdown[L1_WRBK_ACC][MISS] = 1312
	L2_cache_stats_breakdown[L1_WRBK_ACC][RESERVATION_FAIL] = 1
	L2_cache_stats_breakdown[INST_ACC_R][HIT] = 13010
	L2_cache_stats_breakdown[INST_ACC_R][HIT_RESERVED] = 154
	L2_cache_stats_breakdown[INST_ACC_R][MISS] = 53
	L2_cache_stats_breakdown[INST_ACC_R][RESERVATION_FAIL] = 10434
L2_cache_data_port_util = 0.130
L2_cache_fill_port_util = 0.027

icnt_total_pkts_mem_to_simt=174996
icnt_total_pkts_simt_to_mem=293817
LD_mem_lat_dist  0 0 0 0 0 0 0 0 0 0 0 0 0 0 0 0 0 0 0 0 0 0 0 0 0 0 0
ST_mem_lat_dist  0 0 0 0 0 0 0 0 0 0 0 0 0 0 0 0 0 0 0 0 0 0 0 0 0 0 0
----------------------------Interconnect-DETAILS--------------------------------
Class 0:
Packet latency average = 24.8365
	minimum = 6
	maximum = 2255
Network latency average = 18.809
	minimum = 6
	maximum = 1950
Slowest packet = 1373
Flit latency average = 19.2438
	minimum = 6
	maximum = 1946
Slowest flit = 5077
Fragmentation average = 0.608825
	minimum = 0
	maximum = 1799
Injected packet rate average = 0.035833
	minimum = 0.0291957 (at node 1)
	maximum = 0.0400963 (at node 22)
Accepted packet rate average = 0.035833
	minimum = 0.0279279 (at node 1)
	maximum = 0.0424924 (at node 22)
Injected flit rate average = 0.105327
	minimum = 0.083256 (at node 19)
	maximum = 0.127071 (at node 3)
Accepted flit rate average= 0.105327
	minimum = 0.0588888 (at node 1)
	maximum = 0.151207 (at node 17)
Injected packet length average = 2.93938
Accepted packet length average = 2.93938
Total in-flight flits = 0 (0 measured)
====== Overall Traffic Statistics ======
====== Traffic class 0 ======
Packet latency average = 24.8365 (1 samples)
	minimum = 6 (1 samples)
	maximum = 2255 (1 samples)
Network latency average = 18.809 (1 samples)
	minimum = 6 (1 samples)
	maximum = 1950 (1 samples)
Flit latency average = 19.2438 (1 samples)
	minimum = 6 (1 samples)
	maximum = 1946 (1 samples)
Fragmentation average = 0.608825 (1 samples)
	minimum = 0 (1 samples)
	maximum = 1799 (1 samples)
Injected packet rate average = 0.035833 (1 samples)
	minimum = 0.0291957 (1 samples)
	maximum = 0.0400963 (1 samples)
Accepted packet rate average = 0.035833 (1 samples)
	minimum = 0.0279279 (1 samples)
	maximum = 0.0424924 (1 samples)
Injected flit rate average = 0.105327 (1 samples)
	minimum = 0.083256 (1 samples)
	maximum = 0.127071 (1 samples)
Accepted flit rate average = 0.105327 (1 samples)
	minimum = 0.0588888 (1 samples)
	maximum = 0.151207 (1 samples)
Injected packet size average = 2.93938 (1 samples)
Accepted packet size average = 2.93938 (1 samples)
Hops average = 1 (1 samples)
----------------------------END-of-Interconnect-DETAILS-------------------------


gpgpu_simulation_time = 0 days, 0 hrs, 2 min, 21 sec (141 sec)
gpgpu_simulation_rate = 444557 (inst/sec)
gpgpu_simulation_rate = 1169 (cycle/sec)
GPGPU-Sim: synchronize waiting for inactive GPU simulation
GPGPU-Sim API: Stream Manager State
GPGPU-Sim: detected inactive GPU simulation thread

checksum=75ef40cb5b8e
Kernel Time: 139748.468750 
