

        *** GPGPU-Sim Simulator Version 3.2.2  [build 0] ***


GPGPU-Sim PTX: simulation mode 0 (can change with PTX_SIM_MODE_FUNC environment variable:
               1=functional simulation only, 0=detailed performance simulator)
GPGPU-Sim: Configuration options:

-network_mode                           1 # Interconnection network mode
-inter_config_file   config_fermi_islip.icnt # Interconnection network config file
-gpgpu_ptx_use_cuobjdump                    1 # Use cuobjdump to extract ptx and sass from binaries
-gpgpu_experimental_lib_support                    0 # Try to extract code from cuda libraries [Broken because of unknown cudaGetExportTable]
-gpgpu_ptx_convert_to_ptxplus                    0 # Convert SASS (native ISA) to ptxplus and run ptxplus
-gpgpu_ptx_force_max_capability                   20 # Force maximum compute capability
-gpgpu_ptx_inst_debug_to_file                    0 # Dump executed instructions' debug information to file
-gpgpu_ptx_inst_debug_file       inst_debug.txt # Executed instructions' debug output file
-gpgpu_ptx_inst_debug_thread_uid                    1 # Thread UID for executed instructions' debug output
-gpgpu_simd_model                       1 # 1 = post-dominator
-gpgpu_shader_core_pipeline              1536:32 # shader core pipeline config, i.e., {<nthread>:<warpsize>}
-gpgpu_tex_cache:l1  4:128:24,L:R:m:N:L,F:128:4,128:2 # per-shader L1 texture cache  (READ-ONLY) config  {<nsets>:<bsize>:<assoc>,<rep>:<wr>:<alloc>:<wr_alloc>,<mshr>:<N>:<merge>,<mq>:<rf>}
-gpgpu_const_cache:l1 64:64:2,L:R:f:N:L,A:2:32,4 # per-shader L1 constant memory cache  (READ-ONLY) config  {<nsets>:<bsize>:<assoc>,<rep>:<wr>:<alloc>:<wr_alloc>,<mshr>:<N>:<merge>,<mq>} 
-gpgpu_cache:il1     4:128:4,L:R:f:N:L,A:2:32,4 # shader L1 instruction cache config  {<nsets>:<bsize>:<assoc>,<rep>:<wr>:<alloc>:<wr_alloc>,<mshr>:<N>:<merge>,<mq>} 
-gpgpu_cache:dl1     64:128:4,L:L:m:N:H,A:32:8,8 # per-shader L1 data cache config  {<nsets>:<bsize>:<assoc>,<rep>:<wr>:<alloc>:<wr_alloc>,<mshr>:<N>:<merge>,<mq> | none}
-gpgpu_cache:dl1PrefL1                 none # per-shader L1 data cache config  {<nsets>:<bsize>:<assoc>,<rep>:<wr>:<alloc>:<wr_alloc>,<mshr>:<N>:<merge>,<mq> | none}
-gpgpu_cache:dl1PreShared                 none # per-shader L1 data cache config  {<nsets>:<bsize>:<assoc>,<rep>:<wr>:<alloc>:<wr_alloc>,<mshr>:<N>:<merge>,<mq> | none}
-gmem_skip_L1D                          0 # global memory access skip L1D cache (implements -Xptxas -dlcm=cg, default=no skip)
-gpgpu_perfect_mem                      0 # enable perfect memory mode (no cache miss)
-n_regfile_gating_group                    4 # group of lanes that should be read/written together)
-gpgpu_clock_gated_reg_file                    0 # enable clock gated reg file for power calculations
-gpgpu_clock_gated_lanes                    0 # enable clock gated lanes for power calculations
-gpgpu_shader_registers                32768 # Number of registers per shader core. Limits number of concurrent CTAs. (default 8192)
-gpgpu_shader_cta                       8 # Maximum number of concurrent CTAs in shader (default 8)
-gpgpu_num_cta_barriers                   16 # Maximum number of named barriers per CTA (default 16)
-gpgpu_n_clusters                      15 # number of processing clusters
-gpgpu_n_cores_per_cluster                    1 # number of simd cores per cluster
-gpgpu_n_cluster_ejection_buffer_size                    8 # number of packets in ejection buffer
-gpgpu_n_ldst_response_buffer_size                    2 # number of response packets in ld/st unit ejection buffer
-gpgpu_shmem_size                   16384 # Size of shared memory per shader core (default 16kB)
-gpgpu_shmem_size                   49152 # Size of shared memory per shader core (default 16kB)
-gpgpu_shmem_size_PrefL1                16384 # Size of shared memory per shader core (default 16kB)
-gpgpu_shmem_size_PrefShared                16384 # Size of shared memory per shader core (default 16kB)
-gpgpu_shmem_num_banks                   32 # Number of banks in the shared memory in each shader core (default 16)
-gpgpu_shmem_limited_broadcast                    0 # Limit shared memory to do one broadcast per cycle (default on)
-gpgpu_shmem_warp_parts                    1 # Number of portions a warp is divided into for shared memory bank conflict check 
-gpgpu_warpdistro_shader                   -1 # Specify which shader core to collect the warp size distribution from
-gpgpu_warp_issue_shader                    0 # Specify which shader core to collect the warp issue distribution from
-gpgpu_local_mem_map                    1 # Mapping from local memory space address to simulated GPU physical address space (default = enabled)
-gpgpu_num_reg_banks                   16 # Number of register banks (default = 8)
-gpgpu_reg_bank_use_warp_id                    0 # Use warp ID in mapping registers to banks (default = off)
-gpgpu_operand_collector_num_units_sp                    6 # number of collector units (default = 4)
-gpgpu_operand_collector_num_units_sfu                    8 # number of collector units (default = 4)
-gpgpu_operand_collector_num_units_mem                    2 # number of collector units (default = 2)
-gpgpu_operand_collector_num_units_gen                    0 # number of collector units (default = 0)
-gpgpu_operand_collector_num_in_ports_sp                    2 # number of collector unit in ports (default = 1)
-gpgpu_operand_collector_num_in_ports_sfu                    1 # number of collector unit in ports (default = 1)
-gpgpu_operand_collector_num_in_ports_mem                    1 # number of collector unit in ports (default = 1)
-gpgpu_operand_collector_num_in_ports_gen                    0 # number of collector unit in ports (default = 0)
-gpgpu_operand_collector_num_out_ports_sp                    2 # number of collector unit in ports (default = 1)
-gpgpu_operand_collector_num_out_ports_sfu                    1 # number of collector unit in ports (default = 1)
-gpgpu_operand_collector_num_out_ports_mem                    1 # number of collector unit in ports (default = 1)
-gpgpu_operand_collector_num_out_ports_gen                    0 # number of collector unit in ports (default = 0)
-gpgpu_coalesce_arch                   13 # Coalescing arch (default = 13, anything else is off for now)
-gpgpu_num_sched_per_core                    2 # Number of warp schedulers per core
-gpgpu_max_insn_issue_per_warp                    1 # Max number of instructions that can be issued per warp in one cycle by scheduler
-gpgpu_simt_core_sim_order                    1 # Select the simulation order of cores in a cluster (0=Fix, 1=Round-Robin)
-gpgpu_pipeline_widths        2,1,1,2,1,1,2 # Pipeline widths ID_OC_SP,ID_OC_SFU,ID_OC_MEM,OC_EX_SP,OC_EX_SFU,OC_EX_MEM,EX_WB
-gpgpu_num_sp_units                     2 # Number of SP units (default=1)
-gpgpu_num_sfu_units                    1 # Number of SF units (default=1)
-gpgpu_num_mem_units                    1 # Number if ldst units (default=1) WARNING: not hooked up to anything
-gpgpu_scheduler                      gto # Scheduler configuration: < lrr | gto | two_level_active > If two_level_active:<num_active_warps>:<inner_prioritization>:<outer_prioritization>For complete list of prioritization values see shader.h enum scheduler_prioritization_typeDefault: gto
-gpgpu_dram_scheduler                    1 # 0 = fifo, 1 = FR-FCFS (defaul)
-gpgpu_dram_partition_queues              8:8:8:8 # i2$:$2d:d2$:$2i
-l2_ideal                               0 # Use a ideal L2 cache that always hit
-gpgpu_cache:dl2     64:128:8,L:B:m:W:L,A:32:4,4:0,32 # unified banked L2 data cache config  {<nsets>:<bsize>:<assoc>,<rep>:<wr>:<alloc>:<wr_alloc>,<mshr>:<N>:<merge>,<mq>}
-gpgpu_cache:dl2_texture_only                    0 # L2 cache used for texture only
-gpgpu_n_mem                            6 # number of memory modules (e.g. memory controllers) in gpu
-gpgpu_n_sub_partition_per_mchannel                    2 # number of memory subpartition in each memory module
-gpgpu_n_mem_per_ctrlr                    2 # number of memory chips per memory controller
-gpgpu_memlatency_stat                   14 # track and display latency statistics 0x2 enables MC, 0x4 enables queue logs
-gpgpu_frfcfs_dram_sched_queue_size                   16 # 0 = unlimited (default); # entries per chip
-gpgpu_dram_return_queue_size                  116 # 0 = unlimited (default); # entries per chip
-gpgpu_dram_buswidth                    4 # default = 4 bytes (8 bytes per cycle at DDR)
-gpgpu_dram_burst_length                    8 # Burst length of each DRAM request (default = 4 data bus cycle)
-dram_data_command_freq_ratio                    4 # Frequency ratio between DRAM data bus and command bus (default = 2 times, i.e. DDR)
-gpgpu_dram_timing_opt nbk=16:CCD=2:RRD=6:RCD=12:RAS=28:RP=12:RC=40: CL=12:WL=4:CDLR=5:WR=12:nbkgrp=4:CCDL=3:RTPL=2 # DRAM timing parameters = {nbk:tCCD:tRRD:tRCD:tRAS:tRP:tRC:CL:WL:tCDLR:tWR:nbkgrp:tCCDL:tRTPL}
-rop_latency                          120 # ROP queue latency (default 85)
-dram_latency                         100 # DRAM latency (default 30)
-gpgpu_mem_addr_mapping dramid@8;00000000.00000000.00000000.00000000.0000RRRR.RRRRRRRR.BBBCCCCB.CCSSSSSS # mapping memory address to dram model {dramid@<start bit>;<memory address map>}
-gpgpu_mem_addr_test                    0 # run sweep test to check address mapping for aliased address
-gpgpu_mem_address_mask                    1 # 0 = old addressing mask, 1 = new addressing mask, 2 = new add. mask + flipped bank sel and chip sel bits
-gpuwattch_xml_file  gpuwattch_gtx480.xml # GPUWattch XML file
-power_simulation_enabled                    0 # Turn on power simulator (1=On, 0=Off)
-power_per_cycle_dump                    0 # Dump detailed power output each cycle
-power_trace_enabled                    0 # produce a file for the power trace (1=On, 0=Off)
-power_trace_zlevel                     6 # Compression level of the power trace output log (0=no comp, 9=highest)
-steady_power_levels_enabled                    0 # produce a file for the steady power levels (1=On, 0=Off)
-steady_state_definition                  8:4 # allowed deviation:number of samples
-gpgpu_max_cycle                        0 # terminates gpu simulation early (0 = no limit)
-gpgpu_max_insn                         0 # terminates gpu simulation early (0 = no limit)
-gpgpu_max_cta                          0 # terminates gpu simulation early (0 = no limit)
-gpgpu_runtime_stat                   500 # display runtime statistics such as dram utilization {<freq>:<flag>}
-liveness_message_freq                    1 # Minimum number of seconds between simulation liveness messages (0 = always print)
-gpgpu_flush_l1_cache                    0 # Flush L1 cache at the end of each kernel call
-gpgpu_flush_l2_cache                    0 # Flush L2 cache at the end of each kernel call
-gpgpu_deadlock_detect                    1 # Stop the simulation at deadlock (1=on (default), 0=off)
-gpgpu_ptx_instruction_classification                    0 # if enabled will classify ptx instruction types per kernel (Max 255 kernels now)
-gpgpu_ptx_sim_mode                     0 # Select between Performance (default) or Functional simulation (1)
-gpgpu_clock_domains 700.0:700.0:700.0:924.0 # Clock Domain Frequencies in MhZ {<Core Clock>:<ICNT Clock>:<L2 Clock>:<DRAM Clock>}
-gpgpu_max_concurrent_kernel                    8 # maximum kernels that can run concurrently on GPU
-gpgpu_cflog_interval                    0 # Interval between each snapshot in control flow logger
-visualizer_enabled                     0 # Turn on visualizer output (1=On, 0=Off)
-visualizer_outputfile                 NULL # Specifies the output log file for visualizer
-visualizer_zlevel                      6 # Compression level of the visualizer output log (0=no comp, 9=highest)
-trace_enabled                          0 # Turn on traces
-trace_components                    none # comma seperated list of traces to enable. Complete list found in trace_streams.tup. Default none
-trace_sampling_core                    0 # The core which is printed using CORE_DPRINTF. Default 0
-trace_sampling_memory_partition                   -1 # The memory partition which is printed using MEMPART_DPRINTF. Default -1 (i.e. all)
-enable_ptx_file_line_stats                    1 # Turn on PTX source line statistic profiling. (1 = On)
-ptx_line_stats_filename gpgpu_inst_stats.txt # Output file for PTX source line statistics.
-save_embedded_ptx                      0 # saves ptx files embedded in binary as <n>.ptx
-keep                                   0 # keep intermediate files created by GPGPU-Sim when interfacing with external programs
-gpgpu_ptx_save_converted_ptxplus                    0 # Saved converted ptxplus to a file
-ptx_opcode_latency_int         4,13,4,5,145 # Opcode latencies for integers <ADD,MAX,MUL,MAD,DIV>Default 1,1,19,25,145
-ptx_opcode_latency_fp          4,13,4,5,39 # Opcode latencies for single precision floating points <ADD,MAX,MUL,MAD,DIV>Default 1,1,1,1,30
-ptx_opcode_latency_dp         8,19,8,8,330 # Opcode latencies for double precision floating points <ADD,MAX,MUL,MAD,DIV>Default 8,8,8,8,335
-ptx_opcode_initiation_int            1,2,2,1,8 # Opcode initiation intervals for integers <ADD,MAX,MUL,MAD,DIV>Default 1,1,4,4,32
-ptx_opcode_initiation_fp            1,2,1,1,4 # Opcode initiation intervals for single precision floating points <ADD,MAX,MUL,MAD,DIV>Default 1,1,1,1,5
-ptx_opcode_initiation_dp         8,16,8,8,130 # Opcode initiation intervals for double precision floating points <ADD,MAX,MUL,MAD,DIV>Default 8,8,8,8,130
DRAM Timing Options:
nbk                                    16 # number of banks
CCD                                     2 # column to column delay
RRD                                     6 # minimal delay between activation of rows in different banks
RCD                                    12 # row to column delay
RAS                                    28 # time needed to activate row
RP                                     12 # time needed to precharge (deactivate) row
RC                                     40 # row cycle time
CDLR                                    5 # switching from write to read (changes tWTR)
WR                                     12 # last data-in to row precharge
CL                                     12 # CAS latency
WL                                      4 # Write latency
nbkgrp                                  4 # number of bank groups
CCDL                                    3 # column to column delay between accesses to different bank groups
RTPL                                    2 # read to precharge delay between accesses to different bank groups
Total number of memory sub partition = 12
addr_dec_mask[CHIP]  = 0000000000000000 	high:64 low:0
addr_dec_mask[BK]    = 000000000000e100 	high:16 low:8
addr_dec_mask[ROW]   = 000000000fff0000 	high:28 low:16
addr_dec_mask[COL]   = 0000000000001eff 	high:13 low:0
addr_dec_mask[BURST] = 000000000000003f 	high:6 low:0
sub_partition_id_mask = 0000000000000100
GPGPU-Sim uArch: clock freqs: 700000000.000000:700000000.000000:700000000.000000:924000000.000000
GPGPU-Sim uArch: clock periods: 0.00000000142857142857:0.00000000142857142857:0.00000000142857142857:0.00000000108225108225
*** Initializing Memory Statistics ***
GPGPU-Sim uArch: interconnect node map (shaderID+MemID to icntID)
GPGPU-Sim uArch: Memory nodes ID start from index: 15
GPGPU-Sim uArch:    0   1   2   3   4
GPGPU-Sim uArch:    5   6   7   8   9
GPGPU-Sim uArch:   10  11  12  13  14
GPGPU-Sim uArch:   15  16  17  18  19
GPGPU-Sim uArch:   20  21  22  23  24
GPGPU-Sim uArch:   25  26
GPGPU-Sim uArch: interconnect node reverse map (icntID to shaderID+MemID)
GPGPU-Sim uArch: Memory nodes start from ID: 15
GPGPU-Sim uArch:    0   1   2   3   4
GPGPU-Sim uArch:    5   6   7   8   9
GPGPU-Sim uArch:   10  11  12  13  14
GPGPU-Sim uArch:   15  16  17  18  19
GPGPU-Sim uArch:   20  21  22  23  24
GPGPU-Sim uArch:   25  26
3d035f1c221dff4c1b059f7701634ea5  /sciclone/data20/adwait/applications/benchmarks/CUDA/SCP/gpgpu_ptx_sim__SCP
GPGPU-Sim uArch: performance model initialization complete.
GPGPU-Sim PTX: __cudaRegisterFatBinary, fat_cubin_handle = 1, filename=scalarProd.cu
self exe links to: /sciclone/data20/adwait/applications/benchmarks/CUDA/SCP/gpgpu_ptx_sim__SCP
Running md5sum using "md5sum /sciclone/data20/adwait/applications/benchmarks/CUDA/SCP/gpgpu_ptx_sim__SCP "
Parsing file _cuobjdump_complete_output_bF9z0R
######### cuobjdump parser ########
## Adding new section ELF
Adding arch: sm_20
Adding identifier: scalarProd.cu
## Adding new section PTX
Adding ptx filename: _cuobjdump_1.ptx
Adding arch: sm_20
Adding identifier: scalarProd.cu
Done parsing!!!
GPGPU-Sim PTX: __cudaRegisterFunction _Z13scalarProdGPUPfS_S_ii : hostFun 0x0x404ea1, fat_cubin_handle = 1
GPGPU-Sim PTX: allocating shared region for "__cuda___cuda_local_var_42258_35_non_const_accumResult32" from 0x0 to 0x1000 (shared memory space)
GPGPU-Sim PTX: instruction assembly for function '_Z13scalarProdGPUPfS_S_ii'...   done.
GPGPU-Sim PTX: finding reconvergence points for '_Z13scalarProdGPUPfS_S_ii'...
GPGPU-Sim PTX: Finding dominators for '_Z13scalarProdGPUPfS_S_ii'...
GPGPU-Sim PTX: Finding immediate dominators for '_Z13scalarProdGPUPfS_S_ii'...
GPGPU-Sim PTX: Finding postdominators for '_Z13scalarProdGPUPfS_S_ii'...
GPGPU-Sim PTX: Finding immediate postdominators for '_Z13scalarProdGPUPfS_S_ii'...
GPGPU-Sim PTX: pre-decoding instructions for '_Z13scalarProdGPUPfS_S_ii'...
GPGPU-Sim PTX: reconvergence points for _Z13scalarProdGPUPfS_S_ii...
GPGPU-Sim PTX:  1 (potential) branch divergence @  PC=0x020 (_1.ptx:70) @%p1 bra $Lt_0_6146;
GPGPU-Sim PTX:    immediate post dominator      @  PC=0x308 (_1.ptx:187) exit;
GPGPU-Sim PTX:  2 (potential) branch divergence @  PC=0x068 (_1.ptx:81) @!%p2 bra $Lt_0_6914;
GPGPU-Sim PTX:    immediate post dominator      @  PC=0x1d8 (_1.ptx:137) mov.s32 %r25, 512;
GPGPU-Sim PTX:  3 (potential) branch divergence @  PC=0x0e0 (_1.ptx:99) @%p4 bra $Lt_0_12290;
GPGPU-Sim PTX:    immediate post dominator      @  PC=0x1b0 (_1.ptx:131) st.shared.f32 [%rd6+0], %f1;
GPGPU-Sim PTX:  4 (potential) branch divergence @  PC=0x198 (_1.ptx:125) @%p5 bra $Lt_0_8194;
GPGPU-Sim PTX:    immediate post dominator      @  PC=0x1a0 (_1.ptx:126) bra.uni $Lt_0_7682;
GPGPU-Sim PTX:  5 (potential) branch divergence @  PC=0x1a0 (_1.ptx:126) bra.uni $Lt_0_7682;
GPGPU-Sim PTX:    immediate post dominator      @  PC=0x1b0 (_1.ptx:131) st.shared.f32 [%rd6+0], %f1;
GPGPU-Sim PTX:  6 (potential) branch divergence @  PC=0x1d0 (_1.ptx:135) @%p6 bra $Lt_0_7426;
GPGPU-Sim PTX:    immediate post dominator      @  PC=0x1d8 (_1.ptx:137) mov.s32 %r25, 512;
GPGPU-Sim PTX:  7 (potential) branch divergence @  PC=0x1f0 (_1.ptx:143) @%p7 bra $Lt_0_9730;
GPGPU-Sim PTX:    immediate post dominator      @  PC=0x298 (_1.ptx:169) shr.s32 %r25, %r25, 1;
GPGPU-Sim PTX:  8 (potential) branch divergence @  PC=0x290 (_1.ptx:166) @%p8 bra $Lt_0_10242;
GPGPU-Sim PTX:    immediate post dominator      @  PC=0x298 (_1.ptx:169) shr.s32 %r25, %r25, 1;
GPGPU-Sim PTX:  9 (potential) branch divergence @  PC=0x2b0 (_1.ptx:172) @%p9 bra $Lt_0_9474;
GPGPU-Sim PTX:    immediate post dominator      @  PC=0x2b8 (_1.ptx:173) @!%p3 bra $Lt_0_11010;
GPGPU-Sim PTX: 10 (potential) branch divergence @  PC=0x2b8 (_1.ptx:173) @!%p3 bra $Lt_0_11010;
GPGPU-Sim PTX:    immediate post dominator      @  PC=0x2f0 (_1.ptx:182) add.u32 %r2, %r2, %r8;
GPGPU-Sim PTX: 11 (potential) branch divergence @  PC=0x300 (_1.ptx:184) @%p10 bra $Lt_0_6658;
GPGPU-Sim PTX:    immediate post dominator      @  PC=0x308 (_1.ptx:187) exit;
GPGPU-Sim PTX: ... end of reconvergence points for _Z13scalarProdGPUPfS_S_ii
GPGPU-Sim PTX: ... done pre-decoding instructions for '_Z13scalarProdGPUPfS_S_ii'.
GPGPU-Sim PTX: finished parsing EMBEDDED .ptx file _1.ptx
Adding _cuobjdump_1.ptx with cubin handle 1
GPGPU-Sim PTX: extracting embedded .ptx to temporary file "_ptx_r23ajz"
Running: cat _ptx_r23ajz | sed 's/.version 1.5/.version 1.4/' | sed 's/, texmode_independent//' | sed 's/\(\.extern \.const\[1\] .b8 \w\+\)\[\]/\1\[1\]/' | sed 's/const\[.\]/const\[0\]/g' > _ptx2_jRk0Yg
GPGPU-Sim PTX: generating ptxinfo using "$CUDA_INSTALL_PATH/bin/ptxas --gpu-name=sm_20 -v _ptx2_jRk0Yg --output-file  /dev/null 2> _ptx_r23ajzinfo"
GPGPU-Sim PTX: Kernel '_Z13scalarProdGPUPfS_S_ii' : regs=18, lmem=0, smem=4096, cmem=68
GPGPU-Sim PTX: removing ptxinfo using "rm -f _ptx_r23ajz _ptx2_jRk0Yg _ptx_r23ajzinfo"
GPGPU-Sim PTX: loading globals with explicit initializers... 
GPGPU-Sim PTX: finished loading globals (0 bytes total).
GPGPU-Sim PTX: loading constants with explicit initializers...  done.
Initializing data...
...allocating CPU memory.
...allocating GPU memory.
...generating input data in CPU mem.
...copying input data to GPU mem.
Data init done.
Executing GPU kernel...
GPGPU-Sim: synchronize waiting for inactive GPU simulation
GPGPU-Sim API: Stream Manager State
GPGPU-Sim: detected inactive GPU simulation thread

GPGPU-Sim PTX: cudaLaunch for 0x0x404ea1 (mode=performance simulation) on stream 0
GPGPU-Sim PTX: pushing kernel '_Z13scalarProdGPUPfS_S_ii' to stream 0, gridDim= (128,1,1) blockDim = (256,1,1) 
kernel '_Z13scalarProdGPUPfS_S_ii' transfer to GPU hardware scheduler
GPGPU-Sim uArch: Shader 1 bind to kernel 1 '_Z13scalarProdGPUPfS_S_ii'
GPGPU-Sim uArch: CTA/core = 6, limited by: threads regs
GPGPU-Sim uArch: core:  1, cta: 0 initialized @(1,0)
GPGPU-Sim uArch: Shader 2 bind to kernel 1 '_Z13scalarProdGPUPfS_S_ii'
GPGPU-Sim uArch: core:  2, cta: 0 initialized @(1,0)
GPGPU-Sim uArch: Shader 3 bind to kernel 1 '_Z13scalarProdGPUPfS_S_ii'
GPGPU-Sim uArch: core:  3, cta: 0 initialized @(1,0)
GPGPU-Sim uArch: Shader 4 bind to kernel 1 '_Z13scalarProdGPUPfS_S_ii'
GPGPU-Sim uArch: core:  4, cta: 0 initialized @(1,0)
GPGPU-Sim uArch: Shader 5 bind to kernel 1 '_Z13scalarProdGPUPfS_S_ii'
GPGPU-Sim uArch: core:  5, cta: 0 initialized @(1,0)
GPGPU-Sim uArch: Shader 6 bind to kernel 1 '_Z13scalarProdGPUPfS_S_ii'
GPGPU-Sim uArch: core:  6, cta: 0 initialized @(1,0)
GPGPU-Sim uArch: Shader 7 bind to kernel 1 '_Z13scalarProdGPUPfS_S_ii'
GPGPU-Sim uArch: core:  7, cta: 0 initialized @(1,0)
GPGPU-Sim uArch: Shader 8 bind to kernel 1 '_Z13scalarProdGPUPfS_S_ii'
GPGPU-Sim uArch: core:  8, cta: 0 initialized @(1,0)
GPGPU-Sim uArch: Shader 9 bind to kernel 1 '_Z13scalarProdGPUPfS_S_ii'
GPGPU-Sim uArch: core:  9, cta: 0 initialized @(1,0)
GPGPU-Sim uArch: Shader 10 bind to kernel 1 '_Z13scalarProdGPUPfS_S_ii'
GPGPU-Sim uArch: core: 10, cta: 0 initialized @(1,0)
GPGPU-Sim uArch: Shader 11 bind to kernel 1 '_Z13scalarProdGPUPfS_S_ii'
GPGPU-Sim uArch: core: 11, cta: 0 initialized @(1,0)
GPGPU-Sim uArch: Shader 12 bind to kernel 1 '_Z13scalarProdGPUPfS_S_ii'
GPGPU-Sim uArch: core: 12, cta: 0 initialized @(1,0)
GPGPU-Sim uArch: Shader 13 bind to kernel 1 '_Z13scalarProdGPUPfS_S_ii'
GPGPU-Sim uArch: core: 13, cta: 0 initialized @(1,0)
GPGPU-Sim uArch: Shader 14 bind to kernel 1 '_Z13scalarProdGPUPfS_S_ii'
GPGPU-Sim uArch: core: 14, cta: 0 initialized @(1,0)
GPGPU-Sim uArch: Shader 0 bind to kernel 1 '_Z13scalarProdGPUPfS_S_ii'
GPGPU-Sim uArch: core:  0, cta: 0 initialized @(1,0)
GPGPU-Sim uArch: core:  1, cta: 1 initialized @(2,0)
GPGPU-Sim uArch: core:  2, cta: 1 initialized @(2,0)
GPGPU-Sim uArch: core:  3, cta: 1 initialized @(2,0)
GPGPU-Sim uArch: core:  4, cta: 1 initialized @(2,0)
GPGPU-Sim uArch: core:  5, cta: 1 initialized @(2,0)
GPGPU-Sim uArch: core:  6, cta: 1 initialized @(2,0)
GPGPU-Sim uArch: core:  7, cta: 1 initialized @(2,0)
GPGPU-Sim uArch: core:  8, cta: 1 initialized @(2,0)
GPGPU-Sim uArch: core:  9, cta: 1 initialized @(2,0)
GPGPU-Sim uArch: core: 10, cta: 1 initialized @(2,0)
GPGPU-Sim uArch: core: 11, cta: 1 initialized @(2,0)
GPGPU-Sim uArch: core: 12, cta: 1 initialized @(2,0)
GPGPU-Sim uArch: core: 13, cta: 1 initialized @(2,0)
GPGPU-Sim uArch: core: 14, cta: 1 initialized @(2,0)
GPGPU-Sim uArch: core:  0, cta: 1 initialized @(2,0)
GPGPU-Sim uArch: core:  1, cta: 2 initialized @(3,0)
GPGPU-Sim uArch: core:  2, cta: 2 initialized @(3,0)
GPGPU-Sim uArch: core:  3, cta: 2 initialized @(3,0)
GPGPU-Sim uArch: core:  4, cta: 2 initialized @(3,0)
GPGPU-Sim uArch: core:  5, cta: 2 initialized @(3,0)
GPGPU-Sim uArch: core:  6, cta: 2 initialized @(3,0)
GPGPU-Sim uArch: core:  7, cta: 2 initialized @(3,0)
GPGPU-Sim uArch: core:  8, cta: 2 initialized @(3,0)
GPGPU-Sim uArch: core:  9, cta: 2 initialized @(3,0)
GPGPU-Sim uArch: core: 10, cta: 2 initialized @(3,0)
GPGPU-Sim uArch: core: 11, cta: 2 initialized @(3,0)
GPGPU-Sim uArch: core: 12, cta: 2 initialized @(3,0)
GPGPU-Sim uArch: core: 13, cta: 2 initialized @(3,0)
GPGPU-Sim uArch: core: 14, cta: 2 initialized @(3,0)
GPGPU-Sim uArch: core:  0, cta: 2 initialized @(3,0)
GPGPU-Sim uArch: core:  1, cta: 3 initialized @(4,0)
GPGPU-Sim uArch: core:  2, cta: 3 initialized @(4,0)
GPGPU-Sim uArch: core:  3, cta: 3 initialized @(4,0)
GPGPU-Sim uArch: core:  4, cta: 3 initialized @(4,0)
GPGPU-Sim uArch: core:  5, cta: 3 initialized @(4,0)
GPGPU-Sim uArch: core:  6, cta: 3 initialized @(4,0)
GPGPU-Sim uArch: core:  7, cta: 3 initialized @(4,0)
GPGPU-Sim uArch: core:  8, cta: 3 initialized @(4,0)
GPGPU-Sim uArch: core:  9, cta: 3 initialized @(4,0)
GPGPU-Sim uArch: core: 10, cta: 3 initialized @(4,0)
GPGPU-Sim uArch: core: 11, cta: 3 initialized @(4,0)
GPGPU-Sim uArch: core: 12, cta: 3 initialized @(4,0)
GPGPU-Sim uArch: core: 13, cta: 3 initialized @(4,0)
GPGPU-Sim uArch: core: 14, cta: 3 initialized @(4,0)
GPGPU-Sim uArch: core:  0, cta: 3 initialized @(4,0)
GPGPU-Sim uArch: core:  1, cta: 4 initialized @(5,0)
GPGPU-Sim uArch: core:  2, cta: 4 initialized @(5,0)
GPGPU-Sim uArch: core:  3, cta: 4 initialized @(5,0)
GPGPU-Sim uArch: core:  4, cta: 4 initialized @(5,0)
GPGPU-Sim uArch: core:  5, cta: 4 initialized @(5,0)
GPGPU-Sim uArch: core:  6, cta: 4 initialized @(5,0)
GPGPU-Sim uArch: core:  7, cta: 4 initialized @(5,0)
GPGPU-Sim uArch: core:  8, cta: 4 initialized @(5,0)
GPGPU-Sim uArch: core:  9, cta: 4 initialized @(5,0)
GPGPU-Sim uArch: core: 10, cta: 4 initialized @(5,0)
GPGPU-Sim uArch: core: 11, cta: 4 initialized @(5,0)
GPGPU-Sim uArch: core: 12, cta: 4 initialized @(5,0)
GPGPU-Sim uArch: core: 13, cta: 4 initialized @(5,0)
GPGPU-Sim uArch: core: 14, cta: 4 initialized @(5,0)
GPGPU-Sim uArch: core:  0, cta: 4 initialized @(5,0)
GPGPU-Sim uArch: core:  1, cta: 5 initialized @(6,0)
GPGPU-Sim uArch: core:  2, cta: 5 initialized @(6,0)
GPGPU-Sim uArch: core:  3, cta: 5 initialized @(6,0)
GPGPU-Sim uArch: core:  4, cta: 5 initialized @(6,0)
GPGPU-Sim uArch: core:  5, cta: 5 initialized @(6,0)
GPGPU-Sim uArch: core:  6, cta: 5 initialized @(6,0)
GPGPU-Sim uArch: core:  7, cta: 5 initialized @(6,0)
GPGPU-Sim uArch: core:  8, cta: 5 initialized @(6,0)
GPGPU-Sim uArch: core:  9, cta: 5 initialized @(6,0)
GPGPU-Sim uArch: core: 10, cta: 5 initialized @(6,0)
GPGPU-Sim uArch: core: 11, cta: 5 initialized @(6,0)
GPGPU-Sim uArch: core: 12, cta: 5 initialized @(6,0)
GPGPU-Sim uArch: core: 13, cta: 5 initialized @(6,0)
GPGPU-Sim uArch: core: 14, cta: 5 initialized @(6,0)
GPGPU-Sim uArch: core:  0, cta: 5 initialized @(6,0)
GPGPU-Sim uArch: cycles simulated: 500  inst.: 46080 (ipc=92.2) sim_rate=46080 (inst/sec) elapsed = 0:0:00:01 / Sun Feb 28 21:30:18 2016
GPGPU-Sim PTX: 100000 instructions simulated : ctaid=(83,0,0) tid=(63,0,0)
GPGPU-Sim PTX: 200000 instructions simulated : ctaid=(41,0,0) tid=(95,0,0)
GPGPU-Sim PTX: 300000 instructions simulated : ctaid=(86,0,0) tid=(95,0,0)
GPGPU-Sim uArch: cycles simulated: 1000  inst.: 341728 (ipc=341.7) sim_rate=170864 (inst/sec) elapsed = 0:0:00:02 / Sun Feb 28 21:30:19 2016
GPGPU-Sim PTX: 400000 instructions simulated : ctaid=(80,0,0) tid=(191,0,0)
GPGPU-Sim PTX: 500000 instructions simulated : ctaid=(69,0,0) tid=(95,0,0)
GPGPU-Sim PTX: 600000 instructions simulated : ctaid=(35,0,0) tid=(31,0,0)
GPGPU-Sim PTX: 700000 instructions simulated : ctaid=(68,0,0) tid=(223,0,0)
GPGPU-Sim PTX: 800000 instructions simulated : ctaid=(12,0,0) tid=(223,0,0)
GPGPU-Sim PTX: 900000 instructions simulated : ctaid=(12,0,0) tid=(31,0,0)
GPGPU-Sim uArch: cycles simulated: 2000  inst.: 886080 (ipc=443.0) sim_rate=295360 (inst/sec) elapsed = 0:0:00:03 / Sun Feb 28 21:30:20 2016
GPGPU-Sim PTX: 1000000 instructions simulated : ctaid=(83,0,0) tid=(255,0,0)
GPGPU-Sim PTX: 1100000 instructions simulated : ctaid=(8,0,0) tid=(95,0,0)
GPGPU-Sim PTX: 1200000 instructions simulated : ctaid=(34,0,0) tid=(223,0,0)
GPGPU-Sim uArch: cycles simulated: 3500  inst.: 1153664 (ipc=329.6) sim_rate=288416 (inst/sec) elapsed = 0:0:00:04 / Sun Feb 28 21:30:21 2016
GPGPU-Sim PTX: 1300000 instructions simulated : ctaid=(15,0,0) tid=(127,0,0)
GPGPU-Sim PTX: 1400000 instructions simulated : ctaid=(14,0,0) tid=(159,0,0)
GPGPU-Sim PTX: 1500000 instructions simulated : ctaid=(3,0,0) tid=(223,0,0)
GPGPU-Sim PTX: 1600000 instructions simulated : ctaid=(6,0,0) tid=(63,0,0)
GPGPU-Sim uArch: cycles simulated: 5000  inst.: 1511872 (ipc=302.4) sim_rate=302374 (inst/sec) elapsed = 0:0:00:05 / Sun Feb 28 21:30:22 2016
GPGPU-Sim PTX: 1700000 instructions simulated : ctaid=(61,0,0) tid=(63,0,0)
GPGPU-Sim PTX: 1800000 instructions simulated : ctaid=(32,0,0) tid=(223,0,0)
GPGPU-Sim PTX: 1900000 instructions simulated : ctaid=(30,0,0) tid=(159,0,0)
GPGPU-Sim PTX: 2000000 instructions simulated : ctaid=(53,0,0) tid=(159,0,0)
GPGPU-Sim uArch: cycles simulated: 6500  inst.: 1902464 (ipc=292.7) sim_rate=317077 (inst/sec) elapsed = 0:0:00:06 / Sun Feb 28 21:30:23 2016
GPGPU-Sim PTX: 2100000 instructions simulated : ctaid=(12,0,0) tid=(95,0,0)
GPGPU-Sim PTX: 2200000 instructions simulated : ctaid=(10,0,0) tid=(127,0,0)
GPGPU-Sim PTX: 2300000 instructions simulated : ctaid=(19,0,0) tid=(255,0,0)
GPGPU-Sim uArch: cycles simulated: 7500  inst.: 2185312 (ipc=291.4) sim_rate=312187 (inst/sec) elapsed = 0:0:00:07 / Sun Feb 28 21:30:24 2016
GPGPU-Sim PTX: 2400000 instructions simulated : ctaid=(30,0,0) tid=(223,0,0)
GPGPU-Sim PTX: 2500000 instructions simulated : ctaid=(63,0,0) tid=(31,0,0)
GPGPU-Sim PTX: 2600000 instructions simulated : ctaid=(13,0,0) tid=(31,0,0)
GPGPU-Sim PTX: 2700000 instructions simulated : ctaid=(29,0,0) tid=(191,0,0)
GPGPU-Sim uArch: cycles simulated: 9000  inst.: 2580992 (ipc=286.8) sim_rate=322624 (inst/sec) elapsed = 0:0:00:08 / Sun Feb 28 21:30:25 2016
GPGPU-Sim PTX: 2800000 instructions simulated : ctaid=(30,0,0) tid=(223,0,0)
GPGPU-Sim PTX: 2900000 instructions simulated : ctaid=(36,0,0) tid=(159,0,0)
GPGPU-Sim PTX: 3000000 instructions simulated : ctaid=(30,0,0) tid=(31,0,0)
GPGPU-Sim PTX: 3100000 instructions simulated : ctaid=(56,0,0) tid=(223,0,0)
GPGPU-Sim uArch: cycles simulated: 10500  inst.: 2989472 (ipc=284.7) sim_rate=332163 (inst/sec) elapsed = 0:0:00:09 / Sun Feb 28 21:30:26 2016
GPGPU-Sim PTX: 3200000 instructions simulated : ctaid=(11,0,0) tid=(159,0,0)
GPGPU-Sim PTX: 3300000 instructions simulated : ctaid=(45,0,0) tid=(223,0,0)
GPGPU-Sim PTX: 3400000 instructions simulated : ctaid=(45,0,0) tid=(159,0,0)
GPGPU-Sim PTX: 3500000 instructions simulated : ctaid=(50,0,0) tid=(223,0,0)
GPGPU-Sim uArch: cycles simulated: 12000  inst.: 3353664 (ipc=279.5) sim_rate=335366 (inst/sec) elapsed = 0:0:00:10 / Sun Feb 28 21:30:27 2016
GPGPU-Sim PTX: 3600000 instructions simulated : ctaid=(42,0,0) tid=(95,0,0)
GPGPU-Sim PTX: 3700000 instructions simulated : ctaid=(1,0,0) tid=(191,0,0)
GPGPU-Sim PTX: 3800000 instructions simulated : ctaid=(16,0,0) tid=(255,0,0)
GPGPU-Sim uArch: cycles simulated: 13000  inst.: 3621120 (ipc=278.5) sim_rate=329192 (inst/sec) elapsed = 0:0:00:11 / Sun Feb 28 21:30:28 2016
GPGPU-Sim PTX: 3900000 instructions simulated : ctaid=(63,0,0) tid=(223,0,0)
GPGPU-Sim PTX: 4000000 instructions simulated : ctaid=(80,0,0) tid=(95,0,0)
GPGPU-Sim PTX: 4100000 instructions simulated : ctaid=(53,0,0) tid=(31,0,0)
GPGPU-Sim PTX: 4200000 instructions simulated : ctaid=(58,0,0) tid=(127,0,0)
GPGPU-Sim PTX: 4300000 instructions simulated : ctaid=(61,0,0) tid=(31,0,0)
GPGPU-Sim uArch: cycles simulated: 14500  inst.: 4134176 (ipc=285.1) sim_rate=344514 (inst/sec) elapsed = 0:0:00:12 / Sun Feb 28 21:30:29 2016
GPGPU-Sim PTX: 4400000 instructions simulated : ctaid=(12,0,0) tid=(255,0,0)
GPGPU-Sim PTX: 4500000 instructions simulated : ctaid=(0,0,0) tid=(127,0,0)
GPGPU-Sim PTX: 4600000 instructions simulated : ctaid=(1,0,0) tid=(95,0,0)
GPGPU-Sim PTX: 4700000 instructions simulated : ctaid=(67,0,0) tid=(79,0,0)
GPGPU-Sim PTX: 4800000 instructions simulated : ctaid=(19,0,0) tid=(143,0,0)
GPGPU-Sim PTX: 4900000 instructions simulated : ctaid=(86,0,0) tid=(95,0,0)
GPGPU-Sim uArch: cycles simulated: 15500  inst.: 4672232 (ipc=301.4) sim_rate=359402 (inst/sec) elapsed = 0:0:00:13 / Sun Feb 28 21:30:30 2016
GPGPU-Sim PTX: 5000000 instructions simulated : ctaid=(58,0,0) tid=(239,0,0)
GPGPU-Sim PTX: 5100000 instructions simulated : ctaid=(60,0,0) tid=(182,0,0)
GPGPU-Sim PTX: 5200000 instructions simulated : ctaid=(11,0,0) tid=(82,0,0)
GPGPU-Sim PTX: 5300000 instructions simulated : ctaid=(25,0,0) tid=(164,0,0)
GPGPU-Sim PTX: 5400000 instructions simulated : ctaid=(18,0,0) tid=(35,0,0)
GPGPU-Sim PTX: 5500000 instructions simulated : ctaid=(29,0,0) tid=(204,0,0)
GPGPU-Sim uArch: cycles simulated: 16500  inst.: 5272521 (ipc=319.5) sim_rate=376608 (inst/sec) elapsed = 0:0:00:14 / Sun Feb 28 21:30:31 2016
GPGPU-Sim PTX: 5600000 instructions simulated : ctaid=(8,0,0) tid=(34,0,0)
GPGPU-Sim PTX: 5700000 instructions simulated : ctaid=(87,0,0) tid=(12,0,0)
GPGPU-Sim PTX: 5800000 instructions simulated : ctaid=(12,0,0) tid=(228,0,0)
GPGPU-Sim PTX: 5900000 instructions simulated : ctaid=(48,0,0) tid=(241,0,0)
GPGPU-Sim PTX: 6000000 instructions simulated : ctaid=(53,0,0) tid=(186,0,0)
GPGPU-Sim PTX: 6100000 instructions simulated : ctaid=(7,0,0) tid=(147,0,0)
GPGPU-Sim uArch: cycles simulated: 17500  inst.: 5818612 (ipc=332.5) sim_rate=387907 (inst/sec) elapsed = 0:0:00:15 / Sun Feb 28 21:30:32 2016
GPGPU-Sim PTX: 6200000 instructions simulated : ctaid=(54,0,0) tid=(103,0,0)
GPGPU-Sim PTX: 6300000 instructions simulated : ctaid=(22,0,0) tid=(43,0,0)
GPGPU-Sim PTX: 6400000 instructions simulated : ctaid=(22,0,0) tid=(197,0,0)
GPGPU-Sim PTX: 6500000 instructions simulated : ctaid=(34,0,0) tid=(51,0,0)
GPGPU-Sim uArch: cycles simulated: 18500  inst.: 6231192 (ipc=336.8) sim_rate=389449 (inst/sec) elapsed = 0:0:00:16 / Sun Feb 28 21:30:33 2016
GPGPU-Sim PTX: 6600000 instructions simulated : ctaid=(4,0,0) tid=(215,0,0)
GPGPU-Sim PTX: 6700000 instructions simulated : ctaid=(35,0,0) tid=(235,0,0)
GPGPU-Sim PTX: 6800000 instructions simulated : ctaid=(19,0,0) tid=(18,0,0)
GPGPU-Sim PTX: 6900000 instructions simulated : ctaid=(32,0,0) tid=(99,0,0)
GPGPU-Sim uArch: cycles simulated: 19500  inst.: 6654426 (ipc=341.3) sim_rate=391436 (inst/sec) elapsed = 0:0:00:17 / Sun Feb 28 21:30:34 2016
GPGPU-Sim PTX: 7000000 instructions simulated : ctaid=(16,0,0) tid=(35,0,0)
GPGPU-Sim PTX: 7100000 instructions simulated : ctaid=(11,0,0) tid=(67,0,0)
GPGPU-Sim PTX: 7200000 instructions simulated : ctaid=(39,0,0) tid=(211,0,0)
GPGPU-Sim PTX: 7300000 instructions simulated : ctaid=(50,0,0) tid=(163,0,0)
GPGPU-Sim PTX: 7400000 instructions simulated : ctaid=(79,0,0) tid=(195,0,0)
GPGPU-Sim uArch: cycles simulated: 20500  inst.: 7069654 (ipc=344.9) sim_rate=392758 (inst/sec) elapsed = 0:0:00:18 / Sun Feb 28 21:30:35 2016
GPGPU-Sim PTX: 7500000 instructions simulated : ctaid=(17,0,0) tid=(114,0,0)
GPGPU-Sim PTX: 7600000 instructions simulated : ctaid=(8,0,0) tid=(13,0,0)
GPGPU-Sim PTX: 7700000 instructions simulated : ctaid=(26,0,0) tid=(27,0,0)
GPGPU-Sim PTX: 7800000 instructions simulated : ctaid=(42,0,0) tid=(3,0,0)
GPGPU-Sim uArch: cycles simulated: 21500  inst.: 7527999 (ipc=350.1) sim_rate=396210 (inst/sec) elapsed = 0:0:00:19 / Sun Feb 28 21:30:36 2016
GPGPU-Sim PTX: 7900000 instructions simulated : ctaid=(5,0,0) tid=(255,0,0)
GPGPU-Sim PTX: 8000000 instructions simulated : ctaid=(18,0,0) tid=(241,0,0)
GPGPU-Sim PTX: 8100000 instructions simulated : ctaid=(11,0,0) tid=(37,0,0)
GPGPU-Sim PTX: 8200000 instructions simulated : ctaid=(38,0,0) tid=(193,0,0)
GPGPU-Sim PTX: 8300000 instructions simulated : ctaid=(35,0,0) tid=(147,0,0)
GPGPU-Sim PTX: 8400000 instructions simulated : ctaid=(42,0,0) tid=(94,0,0)
GPGPU-Sim uArch: cycles simulated: 23000  inst.: 8072702 (ipc=351.0) sim_rate=403635 (inst/sec) elapsed = 0:0:00:20 / Sun Feb 28 21:30:37 2016
GPGPU-Sim PTX: 8500000 instructions simulated : ctaid=(12,0,0) tid=(36,0,0)
GPGPU-Sim PTX: 8600000 instructions simulated : ctaid=(13,0,0) tid=(21,0,0)
GPGPU-Sim PTX: 8700000 instructions simulated : ctaid=(26,0,0) tid=(149,0,0)
GPGPU-Sim uArch: cycles simulated: 24000  inst.: 8382391 (ipc=349.3) sim_rate=399161 (inst/sec) elapsed = 0:0:00:21 / Sun Feb 28 21:30:38 2016
GPGPU-Sim PTX: 8800000 instructions simulated : ctaid=(52,0,0) tid=(117,0,0)
GPGPU-Sim PTX: 8900000 instructions simulated : ctaid=(6,0,0) tid=(213,0,0)
GPGPU-Sim PTX: 9000000 instructions simulated : ctaid=(6,0,0) tid=(117,0,0)
GPGPU-Sim PTX: 9100000 instructions simulated : ctaid=(16,0,0) tid=(213,0,0)
GPGPU-Sim PTX: 9200000 instructions simulated : ctaid=(36,0,0) tid=(85,0,0)
GPGPU-Sim uArch: cycles simulated: 25500  inst.: 8838295 (ipc=346.6) sim_rate=401740 (inst/sec) elapsed = 0:0:00:22 / Sun Feb 28 21:30:39 2016
GPGPU-Sim PTX: 9300000 instructions simulated : ctaid=(16,0,0) tid=(213,0,0)
GPGPU-Sim PTX: 9400000 instructions simulated : ctaid=(57,0,0) tid=(53,0,0)
GPGPU-Sim PTX: 9500000 instructions simulated : ctaid=(47,0,0) tid=(21,0,0)
GPGPU-Sim PTX: 9600000 instructions simulated : ctaid=(58,0,0) tid=(85,0,0)
GPGPU-Sim PTX: 9700000 instructions simulated : ctaid=(5,0,0) tid=(245,0,0)
GPGPU-Sim uArch: cycles simulated: 26500  inst.: 9339079 (ipc=352.4) sim_rate=406046 (inst/sec) elapsed = 0:0:00:23 / Sun Feb 28 21:30:40 2016
GPGPU-Sim PTX: 9800000 instructions simulated : ctaid=(7,0,0) tid=(197,0,0)
GPGPU-Sim PTX: 9900000 instructions simulated : ctaid=(7,0,0) tid=(49,0,0)
GPGPU-Sim PTX: 10000000 instructions simulated : ctaid=(20,0,0) tid=(21,0,0)
GPGPU-Sim PTX: 10100000 instructions simulated : ctaid=(54,0,0) tid=(185,0,0)
GPGPU-Sim PTX: 10200000 instructions simulated : ctaid=(1,0,0) tid=(13,0,0)
GPGPU-Sim PTX: 10300000 instructions simulated : ctaid=(82,0,0) tid=(120,0,0)
GPGPU-Sim PTX: 10400000 instructions simulated : ctaid=(58,0,0) tid=(30,0,0)
GPGPU-Sim uArch: cycles simulated: 27500  inst.: 9963627 (ipc=362.3) sim_rate=415151 (inst/sec) elapsed = 0:0:00:24 / Sun Feb 28 21:30:41 2016
GPGPU-Sim PTX: 10500000 instructions simulated : ctaid=(7,0,0) tid=(78,0,0)
GPGPU-Sim PTX: 10600000 instructions simulated : ctaid=(49,0,0) tid=(107,0,0)
GPGPU-Sim PTX: 10700000 instructions simulated : ctaid=(7,0,0) tid=(5,0,0)
GPGPU-Sim uArch: Shader 3 finished CTA #0 (28011,0), 5 CTAs running
GPGPU-Sim uArch: core:  3, cta: 0 initialized @(28012,0)
GPGPU-Sim uArch: Shader 9 finished CTA #0 (28015,0), 5 CTAs running
GPGPU-Sim uArch: core:  9, cta: 0 initialized @(28016,0)
GPGPU-Sim PTX: 10800000 instructions simulated : ctaid=(91,0,0) tid=(22,0,0)
GPGPU-Sim uArch: Shader 6 finished CTA #0 (28138,0), 5 CTAs running
GPGPU-Sim uArch: core:  6, cta: 0 initialized @(28139,0)
GPGPU-Sim PTX: 10900000 instructions simulated : ctaid=(45,0,0) tid=(230,0,0)
GPGPU-Sim PTX: 11000000 instructions simulated : ctaid=(58,0,0) tid=(74,0,0)
GPGPU-Sim uArch: Shader 1 finished CTA #0 (28306,0), 5 CTAs running
GPGPU-Sim uArch: core:  1, cta: 0 initialized @(28307,0)
GPGPU-Sim uArch: Shader 13 finished CTA #0 (28314,0), 5 CTAs running
GPGPU-Sim uArch: core: 13, cta: 0 initialized @(28315,0)
GPGPU-Sim uArch: Shader 10 finished CTA #0 (28317,0), 5 CTAs running
GPGPU-Sim uArch: core: 10, cta: 0 initialized @(28318,0)
GPGPU-Sim PTX: 11100000 instructions simulated : ctaid=(17,0,0) tid=(24,0,0)
GPGPU-Sim uArch: cycles simulated: 28500  inst.: 10648583 (ipc=373.6) sim_rate=425943 (inst/sec) elapsed = 0:0:00:25 / Sun Feb 28 21:30:42 2016
GPGPU-Sim PTX: 11200000 instructions simulated : ctaid=(23,0,0) tid=(25,0,0)
GPGPU-Sim uArch: Shader 4 finished CTA #0 (28584,0), 5 CTAs running
GPGPU-Sim uArch: core:  4, cta: 0 initialized @(28585,0)
GPGPU-Sim PTX: 11300000 instructions simulated : ctaid=(20,0,0) tid=(0,0,0)
GPGPU-Sim uArch: Shader 11 finished CTA #0 (28769,0), 5 CTAs running
GPGPU-Sim uArch: core: 11, cta: 0 initialized @(28770,0)
GPGPU-Sim PTX: 11400000 instructions simulated : ctaid=(49,0,0) tid=(24,0,0)
GPGPU-Sim uArch: Shader 5 finished CTA #0 (28836,0), 5 CTAs running
GPGPU-Sim uArch: core:  5, cta: 0 initialized @(28837,0)
GPGPU-Sim PTX: 11500000 instructions simulated : ctaid=(35,0,0) tid=(115,0,0)
GPGPU-Sim uArch: Shader 8 finished CTA #0 (28948,0), 5 CTAs running
GPGPU-Sim uArch: core:  8, cta: 0 initialized @(28949,0)
GPGPU-Sim uArch: cycles simulated: 29000  inst.: 11009732 (ipc=379.6) sim_rate=423451 (inst/sec) elapsed = 0:0:00:26 / Sun Feb 28 21:30:43 2016
GPGPU-Sim uArch: Shader 14 finished CTA #0 (29022,0), 5 CTAs running
GPGPU-Sim uArch: core: 14, cta: 0 initialized @(29023,0)
GPGPU-Sim PTX: 11600000 instructions simulated : ctaid=(37,0,0) tid=(238,0,0)
GPGPU-Sim uArch: Shader 0 finished CTA #0 (29096,0), 5 CTAs running
GPGPU-Sim uArch: core:  0, cta: 0 initialized @(29097,0)
GPGPU-Sim uArch: Shader 2 finished CTA #0 (29170,0), 5 CTAs running
GPGPU-Sim uArch: core:  2, cta: 0 initialized @(29171,0)
GPGPU-Sim PTX: 11700000 instructions simulated : ctaid=(26,0,0) tid=(51,0,0)
GPGPU-Sim uArch: Shader 1 finished CTA #1 (29375,0), 5 CTAs running
GPGPU-Sim uArch: core:  1, cta: 1 initialized @(29376,0)
GPGPU-Sim PTX: 11800000 instructions simulated : ctaid=(100,0,0) tid=(90,0,0)
GPGPU-Sim PTX: 11900000 instructions simulated : ctaid=(48,0,0) tid=(240,0,0)
GPGPU-Sim uArch: Shader 2 finished CTA #1 (29626,0), 5 CTAs running
GPGPU-Sim uArch: core:  2, cta: 1 initialized @(29627,0)
GPGPU-Sim PTX: 12000000 instructions simulated : ctaid=(29,0,0) tid=(33,0,0)
GPGPU-Sim uArch: Shader 3 finished CTA #1 (29903,0), 5 CTAs running
GPGPU-Sim uArch: core:  3, cta: 1 initialized @(29904,0)
GPGPU-Sim PTX: 12100000 instructions simulated : ctaid=(19,0,0) tid=(163,0,0)
GPGPU-Sim uArch: cycles simulated: 30000  inst.: 11570912 (ipc=385.7) sim_rate=428552 (inst/sec) elapsed = 0:0:00:27 / Sun Feb 28 21:30:44 2016
GPGPU-Sim uArch: Shader 8 finished CTA #1 (30010,0), 5 CTAs running
GPGPU-Sim uArch: core:  8, cta: 1 initialized @(30011,0)
GPGPU-Sim PTX: 12200000 instructions simulated : ctaid=(24,0,0) tid=(99,0,0)
GPGPU-Sim uArch: Shader 12 finished CTA #0 (30190,0), 5 CTAs running
GPGPU-Sim uArch: core: 12, cta: 0 initialized @(30191,0)
GPGPU-Sim uArch: Shader 4 finished CTA #1 (30217,0), 5 CTAs running
GPGPU-Sim uArch: core:  4, cta: 1 initialized @(30218,0)
GPGPU-Sim uArch: Shader 14 finished CTA #1 (30226,0), 5 CTAs running
GPGPU-Sim uArch: core: 14, cta: 1 initialized @(30227,0)
GPGPU-Sim uArch: Shader 7 finished CTA #0 (30275,0), 5 CTAs running
GPGPU-Sim uArch: core:  7, cta: 0 initialized @(30276,0)
GPGPU-Sim uArch: Shader 13 finished CTA #1 (30320,0), 5 CTAs running
GPGPU-Sim uArch: core: 13, cta: 1 initialized @(30321,0)
GPGPU-Sim PTX: 12300000 instructions simulated : ctaid=(30,0,0) tid=(243,0,0)
GPGPU-Sim uArch: Shader 6 finished CTA #1 (30444,0), 5 CTAs running
GPGPU-Sim uArch: core:  6, cta: 1 initialized @(30445,0)
GPGPU-Sim PTX: 12400000 instructions simulated : ctaid=(106,0,0) tid=(159,0,0)
GPGPU-Sim uArch: Shader 11 finished CTA #1 (30684,0), 5 CTAs running
GPGPU-Sim uArch: core: 11, cta: 1 initialized @(30685,0)
GPGPU-Sim PTX: 12500000 instructions simulated : ctaid=(77,0,0) tid=(127,0,0)
GPGPU-Sim PTX: 12600000 instructions simulated : ctaid=(37,0,0) tid=(109,0,0)
GPGPU-Sim uArch: Shader 10 finished CTA #1 (30922,0), 5 CTAs running
GPGPU-Sim uArch: core: 10, cta: 1 initialized @(30923,0)
GPGPU-Sim uArch: Shader 5 finished CTA #1 (30985,0), 5 CTAs running
GPGPU-Sim uArch: core:  5, cta: 1 initialized @(30986,0)
GPGPU-Sim uArch: cycles simulated: 31000  inst.: 12058852 (ipc=389.0) sim_rate=430673 (inst/sec) elapsed = 0:0:00:28 / Sun Feb 28 21:30:45 2016
GPGPU-Sim PTX: 12700000 instructions simulated : ctaid=(36,0,0) tid=(80,0,0)
GPGPU-Sim PTX: 12800000 instructions simulated : ctaid=(41,0,0) tid=(115,0,0)
GPGPU-Sim uArch: Shader 9 finished CTA #1 (31378,0), 5 CTAs running
GPGPU-Sim uArch: core:  9, cta: 1 initialized @(31379,0)
GPGPU-Sim uArch: Shader 0 finished CTA #1 (31398,0), 5 CTAs running
GPGPU-Sim uArch: core:  0, cta: 1 initialized @(31399,0)
GPGPU-Sim uArch: Shader 12 finished CTA #1 (31416,0), 5 CTAs running
GPGPU-Sim uArch: core: 12, cta: 1 initialized @(31417,0)
GPGPU-Sim PTX: 12900000 instructions simulated : ctaid=(35,0,0) tid=(175,0,0)
GPGPU-Sim PTX: 13000000 instructions simulated : ctaid=(71,0,0) tid=(11,0,0)
GPGPU-Sim PTX: 13100000 instructions simulated : ctaid=(30,0,0) tid=(27,0,0)
GPGPU-Sim uArch: Shader 7 finished CTA #1 (31772,0), 5 CTAs running
GPGPU-Sim uArch: core:  7, cta: 1 initialized @(31773,0)
GPGPU-Sim PTX: 13200000 instructions simulated : ctaid=(60,0,0) tid=(27,0,0)
GPGPU-Sim uArch: cycles simulated: 32000  inst.: 12626126 (ipc=394.6) sim_rate=435383 (inst/sec) elapsed = 0:0:00:29 / Sun Feb 28 21:30:46 2016
GPGPU-Sim PTX: 13300000 instructions simulated : ctaid=(52,0,0) tid=(255,0,0)
GPGPU-Sim PTX: 13400000 instructions simulated : ctaid=(119,0,0) tid=(86,0,0)
GPGPU-Sim PTX: 13500000 instructions simulated : ctaid=(79,0,0) tid=(227,0,0)
GPGPU-Sim uArch: cycles simulated: 32500  inst.: 12919197 (ipc=397.5) sim_rate=430639 (inst/sec) elapsed = 0:0:00:30 / Sun Feb 28 21:30:47 2016
GPGPU-Sim PTX: 13600000 instructions simulated : ctaid=(87,0,0) tid=(242,0,0)
GPGPU-Sim PTX: 13700000 instructions simulated : ctaid=(107,0,0) tid=(182,0,0)
GPGPU-Sim PTX: 13800000 instructions simulated : ctaid=(46,0,0) tid=(1,0,0)
GPGPU-Sim PTX: 13900000 instructions simulated : ctaid=(32,0,0) tid=(233,0,0)
GPGPU-Sim PTX: 14000000 instructions simulated : ctaid=(54,0,0) tid=(160,0,0)
GPGPU-Sim PTX: 14100000 instructions simulated : ctaid=(47,0,0) tid=(204,0,0)
GPGPU-Sim uArch: cycles simulated: 33500  inst.: 13476036 (ipc=402.3) sim_rate=434710 (inst/sec) elapsed = 0:0:00:31 / Sun Feb 28 21:30:48 2016
GPGPU-Sim PTX: 14200000 instructions simulated : ctaid=(48,0,0) tid=(197,0,0)
GPGPU-Sim uArch: Shader 9 finished CTA #2 (33733,0), 5 CTAs running
GPGPU-Sim uArch: core:  9, cta: 2 initialized @(33734,0)
GPGPU-Sim PTX: 14300000 instructions simulated : ctaid=(111,0,0) tid=(139,0,0)
GPGPU-Sim uArch: Shader 8 finished CTA #2 (33809,0), 5 CTAs running
GPGPU-Sim uArch: core:  8, cta: 2 initialized @(33810,0)
GPGPU-Sim uArch: Shader 6 finished CTA #2 (33909,0), 5 CTAs running
GPGPU-Sim uArch: core:  6, cta: 2 initialized @(33910,0)
GPGPU-Sim PTX: 14400000 instructions simulated : ctaid=(56,0,0) tid=(235,0,0)
GPGPU-Sim uArch: Shader 1 finished CTA #2 (33969,0), 5 CTAs running
GPGPU-Sim uArch: core:  1, cta: 2 initialized @(33970,0)
GPGPU-Sim uArch: Shader 3 finished CTA #2 (34037,0), 5 CTAs running
GPGPU-Sim uArch: core:  3, cta: 2 initialized @(34038,0)
GPGPU-Sim uArch: Shader 2 finished CTA #2 (34077,0), 5 CTAs running
GPGPU-Sim uArch: core:  2, cta: 2 initialized @(34078,0)
GPGPU-Sim PTX: 14500000 instructions simulated : ctaid=(69,0,0) tid=(105,0,0)
GPGPU-Sim PTX: 14600000 instructions simulated : ctaid=(88,0,0) tid=(25,0,0)
GPGPU-Sim PTX: 14700000 instructions simulated : ctaid=(78,0,0) tid=(96,0,0)
GPGPU-Sim uArch: cycles simulated: 34500  inst.: 14014875 (ipc=406.2) sim_rate=437964 (inst/sec) elapsed = 0:0:00:32 / Sun Feb 28 21:30:49 2016
GPGPU-Sim uArch: Shader 11 finished CTA #2 (34593,0), 5 CTAs running
GPGPU-Sim uArch: core: 11, cta: 2 initialized @(34594,0)
GPGPU-Sim PTX: 14800000 instructions simulated : ctaid=(97,0,0) tid=(102,0,0)
GPGPU-Sim uArch: Shader 10 finished CTA #2 (34872,0), 5 CTAs running
GPGPU-Sim uArch: core: 10, cta: 2 initialized @(34873,0)
GPGPU-Sim uArch: Shader 13 finished CTA #2 (34879,0), 5 CTAs running
GPGPU-Sim PTX: 14900000 instructions simulated : ctaid=(44,0,0) tid=(204,0,0)
GPGPU-Sim uArch: Shader 5 finished CTA #2 (34975,0), 5 CTAs running
GPGPU-Sim PTX: 15000000 instructions simulated : ctaid=(126,0,0) tid=(153,0,0)
GPGPU-Sim PTX: 15100000 instructions simulated : ctaid=(74,0,0) tid=(227,0,0)
GPGPU-Sim uArch: Shader 14 finished CTA #2 (35394,0), 5 CTAs running
GPGPU-Sim uArch: Shader 0 finished CTA #2 (35396,0), 5 CTAs running
GPGPU-Sim uArch: Shader 4 finished CTA #2 (35404,0), 5 CTAs running
GPGPU-Sim uArch: cycles simulated: 35500  inst.: 14452394 (ipc=407.1) sim_rate=437951 (inst/sec) elapsed = 0:0:00:33 / Sun Feb 28 21:30:50 2016
GPGPU-Sim PTX: 15200000 instructions simulated : ctaid=(77,0,0) tid=(167,0,0)
GPGPU-Sim PTX: 15300000 instructions simulated : ctaid=(81,0,0) tid=(25,0,0)
GPGPU-Sim PTX: 15400000 instructions simulated : ctaid=(78,0,0) tid=(16,0,0)
GPGPU-Sim PTX: 15500000 instructions simulated : ctaid=(112,0,0) tid=(66,0,0)
GPGPU-Sim uArch: Shader 7 finished CTA #2 (36396,0), 5 CTAs running
GPGPU-Sim uArch: cycles simulated: 36500  inst.: 14871435 (ipc=407.4) sim_rate=437395 (inst/sec) elapsed = 0:0:00:34 / Sun Feb 28 21:30:51 2016
GPGPU-Sim PTX: 15600000 instructions simulated : ctaid=(64,0,0) tid=(39,0,0)
GPGPU-Sim PTX: 15700000 instructions simulated : ctaid=(54,0,0) tid=(73,0,0)
GPGPU-Sim uArch: Shader 12 finished CTA #2 (36876,0), 5 CTAs running
GPGPU-Sim PTX: 15800000 instructions simulated : ctaid=(76,0,0) tid=(211,0,0)
GPGPU-Sim PTX: 15900000 instructions simulated : ctaid=(85,0,0) tid=(245,0,0)
GPGPU-Sim PTX: 16000000 instructions simulated : ctaid=(55,0,0) tid=(22,0,0)
GPGPU-Sim uArch: cycles simulated: 37500  inst.: 15259326 (ipc=406.9) sim_rate=435980 (inst/sec) elapsed = 0:0:00:35 / Sun Feb 28 21:30:52 2016
GPGPU-Sim PTX: 16100000 instructions simulated : ctaid=(55,0,0) tid=(169,0,0)
GPGPU-Sim PTX: 16200000 instructions simulated : ctaid=(55,0,0) tid=(9,0,0)
GPGPU-Sim PTX: 16300000 instructions simulated : ctaid=(76,0,0) tid=(3,0,0)
GPGPU-Sim PTX: 16400000 instructions simulated : ctaid=(82,0,0) tid=(159,0,0)
GPGPU-Sim PTX: 16500000 instructions simulated : ctaid=(50,0,0) tid=(203,0,0)
GPGPU-Sim uArch: cycles simulated: 38500  inst.: 15754578 (ipc=409.2) sim_rate=437627 (inst/sec) elapsed = 0:0:00:36 / Sun Feb 28 21:30:53 2016
GPGPU-Sim PTX: 16600000 instructions simulated : ctaid=(82,0,0) tid=(132,0,0)
GPGPU-Sim PTX: 16700000 instructions simulated : ctaid=(82,0,0) tid=(60,0,0)
GPGPU-Sim PTX: 16800000 instructions simulated : ctaid=(111,0,0) tid=(15,0,0)
GPGPU-Sim PTX: 16900000 instructions simulated : ctaid=(119,0,0) tid=(16,0,0)
GPGPU-Sim PTX: 17000000 instructions simulated : ctaid=(68,0,0) tid=(106,0,0)
GPGPU-Sim uArch: cycles simulated: 39500  inst.: 16239248 (ipc=411.1) sim_rate=438898 (inst/sec) elapsed = 0:0:00:37 / Sun Feb 28 21:30:54 2016
GPGPU-Sim PTX: 17100000 instructions simulated : ctaid=(98,0,0) tid=(42,0,0)
GPGPU-Sim uArch: Shader 4 finished CTA #3 (39750,0), 4 CTAs running
GPGPU-Sim uArch: Shader 3 finished CTA #3 (39815,0), 5 CTAs running
GPGPU-Sim PTX: 17200000 instructions simulated : ctaid=(121,0,0) tid=(11,0,0)
GPGPU-Sim PTX: 17300000 instructions simulated : ctaid=(83,0,0) tid=(195,0,0)
GPGPU-Sim uArch: Shader 6 finished CTA #3 (40279,0), 5 CTAs running
GPGPU-Sim uArch: Shader 11 finished CTA #3 (40342,0), 5 CTAs running
GPGPU-Sim PTX: 17400000 instructions simulated : ctaid=(127,0,0) tid=(197,0,0)
GPGPU-Sim uArch: Shader 9 finished CTA #3 (40458,0), 5 CTAs running
GPGPU-Sim uArch: Shader 13 finished CTA #3 (40485,0), 4 CTAs running
GPGPU-Sim uArch: cycles simulated: 40500  inst.: 16629894 (ipc=410.6) sim_rate=437628 (inst/sec) elapsed = 0:0:00:38 / Sun Feb 28 21:30:55 2016
GPGPU-Sim uArch: Shader 8 finished CTA #3 (40539,0), 5 CTAs running
GPGPU-Sim uArch: Shader 2 finished CTA #3 (40557,0), 5 CTAs running
GPGPU-Sim PTX: 17500000 instructions simulated : ctaid=(123,0,0) tid=(158,0,0)
GPGPU-Sim uArch: Shader 1 finished CTA #3 (40767,0), 5 CTAs running
GPGPU-Sim PTX: 17600000 instructions simulated : ctaid=(78,0,0) tid=(237,0,0)
GPGPU-Sim uArch: Shader 10 finished CTA #3 (41003,0), 5 CTAs running
GPGPU-Sim PTX: 17700000 instructions simulated : ctaid=(114,0,0) tid=(142,0,0)
GPGPU-Sim PTX: 17800000 instructions simulated : ctaid=(58,0,0) tid=(57,0,0)
GPGPU-Sim uArch: Shader 12 finished CTA #3 (41490,0), 4 CTAs running
GPGPU-Sim uArch: cycles simulated: 41500  inst.: 16984943 (ipc=409.3) sim_rate=435511 (inst/sec) elapsed = 0:0:00:39 / Sun Feb 28 21:30:56 2016
GPGPU-Sim PTX: 17900000 instructions simulated : ctaid=(62,0,0) tid=(129,0,0)
GPGPU-Sim uArch: Shader 14 finished CTA #3 (41841,0), 4 CTAs running
GPGPU-Sim PTX: 18000000 instructions simulated : ctaid=(82,0,0) tid=(182,0,0)
GPGPU-Sim PTX: 18100000 instructions simulated : ctaid=(87,0,0) tid=(149,0,0)
GPGPU-Sim uArch: Shader 7 finished CTA #3 (42506,0), 4 CTAs running
GPGPU-Sim uArch: Shader 0 finished CTA #3 (42590,0), 4 CTAs running
GPGPU-Sim PTX: 18200000 instructions simulated : ctaid=(62,0,0) tid=(230,0,0)
GPGPU-Sim uArch: cycles simulated: 43000  inst.: 17425154 (ipc=405.2) sim_rate=435628 (inst/sec) elapsed = 0:0:00:40 / Sun Feb 28 21:30:57 2016
GPGPU-Sim PTX: 18300000 instructions simulated : ctaid=(89,0,0) tid=(51,0,0)
GPGPU-Sim uArch: Shader 5 finished CTA #3 (43118,0), 4 CTAs running
GPGPU-Sim PTX: 18400000 instructions simulated : ctaid=(89,0,0) tid=(147,0,0)
GPGPU-Sim PTX: 18500000 instructions simulated : ctaid=(96,0,0) tid=(139,0,0)
GPGPU-Sim PTX: 18600000 instructions simulated : ctaid=(109,0,0) tid=(161,0,0)
GPGPU-Sim uArch: cycles simulated: 44000  inst.: 17804530 (ipc=404.6) sim_rate=434256 (inst/sec) elapsed = 0:0:00:41 / Sun Feb 28 21:30:58 2016
GPGPU-Sim PTX: 18700000 instructions simulated : ctaid=(65,0,0) tid=(49,0,0)
GPGPU-Sim PTX: 18800000 instructions simulated : ctaid=(71,0,0) tid=(67,0,0)
GPGPU-Sim PTX: 18900000 instructions simulated : ctaid=(64,0,0) tid=(64,0,0)
GPGPU-Sim uArch: Shader 4 finished CTA #4 (44404,0), 3 CTAs running
GPGPU-Sim PTX: 19000000 instructions simulated : ctaid=(71,0,0) tid=(63,0,0)
GPGPU-Sim PTX: 19100000 instructions simulated : ctaid=(87,0,0) tid=(103,0,0)
GPGPU-Sim PTX: 19200000 instructions simulated : ctaid=(82,0,0) tid=(191,0,0)
GPGPU-Sim PTX: 19300000 instructions simulated : ctaid=(65,0,0) tid=(41,0,0)
GPGPU-Sim uArch: cycles simulated: 45000  inst.: 18410222 (ipc=409.1) sim_rate=438338 (inst/sec) elapsed = 0:0:00:42 / Sun Feb 28 21:30:59 2016
GPGPU-Sim uArch: Shader 11 finished CTA #4 (45089,0), 4 CTAs running
GPGPU-Sim PTX: 19400000 instructions simulated : ctaid=(80,0,0) tid=(255,0,0)
GPGPU-Sim PTX: 19500000 instructions simulated : ctaid=(89,0,0) tid=(3,0,0)
GPGPU-Sim uArch: Shader 3 finished CTA #4 (45340,0), 4 CTAs running
GPGPU-Sim uArch: Shader 7 finished CTA #4 (45375,0), 3 CTAs running
GPGPU-Sim PTX: 19600000 instructions simulated : ctaid=(95,0,0) tid=(190,0,0)
GPGPU-Sim uArch: Shader 12 finished CTA #4 (45567,0), 3 CTAs running
GPGPU-Sim PTX: 19700000 instructions simulated : ctaid=(112,0,0) tid=(123,0,0)
GPGPU-Sim uArch: Shader 9 finished CTA #4 (45802,0), 4 CTAs running
GPGPU-Sim PTX: 19800000 instructions simulated : ctaid=(64,0,0) tid=(9,0,0)
GPGPU-Sim PTX: 19900000 instructions simulated : ctaid=(118,0,0) tid=(178,0,0)
GPGPU-Sim uArch: cycles simulated: 46000  inst.: 18997323 (ipc=413.0) sim_rate=441798 (inst/sec) elapsed = 0:0:00:43 / Sun Feb 28 21:31:00 2016
GPGPU-Sim uArch: Shader 5 finished CTA #4 (46034,0), 3 CTAs running
GPGPU-Sim uArch: Shader 2 finished CTA #4 (46123,0), 4 CTAs running
GPGPU-Sim PTX: 20000000 instructions simulated : ctaid=(95,0,0) tid=(12,0,0)
GPGPU-Sim uArch: Shader 0 finished CTA #4 (46223,0), 3 CTAs running
GPGPU-Sim uArch: Shader 14 finished CTA #4 (46231,0), 3 CTAs running
GPGPU-Sim uArch: Shader 13 finished CTA #4 (46277,0), 3 CTAs running
GPGPU-Sim PTX: 20100000 instructions simulated : ctaid=(107,0,0) tid=(203,0,0)
GPGPU-Sim uArch: Shader 6 finished CTA #4 (46338,0), 4 CTAs running
GPGPU-Sim uArch: Shader 8 finished CTA #4 (46461,0), 4 CTAs running
GPGPU-Sim PTX: 20200000 instructions simulated : ctaid=(107,0,0) tid=(28,0,0)
GPGPU-Sim PTX: 20300000 instructions simulated : ctaid=(77,0,0) tid=(31,0,0)
GPGPU-Sim PTX: 20400000 instructions simulated : ctaid=(88,0,0) tid=(35,0,0)
GPGPU-Sim uArch: Shader 10 finished CTA #4 (46985,0), 4 CTAs running
GPGPU-Sim uArch: cycles simulated: 47000  inst.: 19494153 (ipc=414.8) sim_rate=443048 (inst/sec) elapsed = 0:0:00:44 / Sun Feb 28 21:31:01 2016
GPGPU-Sim PTX: 20500000 instructions simulated : ctaid=(78,0,0) tid=(100,0,0)
GPGPU-Sim PTX: 20600000 instructions simulated : ctaid=(97,0,0) tid=(100,0,0)
GPGPU-Sim uArch: Shader 1 finished CTA #4 (47336,0), 4 CTAs running
GPGPU-Sim PTX: 20700000 instructions simulated : ctaid=(94,0,0) tid=(69,0,0)
GPGPU-Sim PTX: 20800000 instructions simulated : ctaid=(80,0,0) tid=(255,0,0)
GPGPU-Sim PTX: 20900000 instructions simulated : ctaid=(108,0,0) tid=(77,0,0)
GPGPU-Sim PTX: 21000000 instructions simulated : ctaid=(105,0,0) tid=(128,0,0)
GPGPU-Sim PTX: 21100000 instructions simulated : ctaid=(86,0,0) tid=(17,0,0)
GPGPU-Sim uArch: Shader 3 finished CTA #5 (48282,0), 3 CTAs running
GPGPU-Sim uArch: Shader 4 finished CTA #5 (48405,0), 2 CTAs running
GPGPU-Sim PTX: 21200000 instructions simulated : ctaid=(79,0,0) tid=(171,0,0)
GPGPU-Sim uArch: Shader 13 finished CTA #5 (48437,0), 2 CTAs running
GPGPU-Sim uArch: cycles simulated: 48500  inst.: 20265238 (ipc=417.8) sim_rate=450338 (inst/sec) elapsed = 0:0:00:45 / Sun Feb 28 21:31:02 2016
GPGPU-Sim uArch: Shader 6 finished CTA #5 (48573,0), 3 CTAs running
GPGPU-Sim PTX: 21300000 instructions simulated : ctaid=(109,0,0) tid=(49,0,0)
GPGPU-Sim uArch: Shader 0 finished CTA #5 (48701,0), 2 CTAs running
GPGPU-Sim PTX: 21400000 instructions simulated : ctaid=(115,0,0) tid=(111,0,0)
GPGPU-Sim PTX: 21500000 instructions simulated : ctaid=(96,0,0) tid=(126,0,0)
GPGPU-Sim uArch: Shader 14 finished CTA #5 (49004,0), 2 CTAs running
GPGPU-Sim PTX: 21600000 instructions simulated : ctaid=(76,0,0) tid=(17,0,0)
GPGPU-Sim uArch: Shader 10 finished CTA #5 (49096,0), 3 CTAs running
GPGPU-Sim PTX: 21700000 instructions simulated : ctaid=(75,0,0) tid=(154,0,0)
GPGPU-Sim uArch: Shader 12 finished CTA #5 (49279,0), 2 CTAs running
GPGPU-Sim PTX: 21800000 instructions simulated : ctaid=(113,0,0) tid=(148,0,0)
GPGPU-Sim uArch: cycles simulated: 49500  inst.: 20803567 (ipc=420.3) sim_rate=452251 (inst/sec) elapsed = 0:0:00:46 / Sun Feb 28 21:31:03 2016
GPGPU-Sim uArch: Shader 5 finished CTA #5 (49591,0), 2 CTAs running
GPGPU-Sim PTX: 21900000 instructions simulated : ctaid=(110,0,0) tid=(56,0,0)
GPGPU-Sim uArch: Shader 2 finished CTA #5 (49733,0), 3 CTAs running
GPGPU-Sim uArch: Shader 7 finished CTA #5 (49744,0), 2 CTAs running
GPGPU-Sim uArch: Shader 8 finished CTA #5 (49760,0), 3 CTAs running
GPGPU-Sim uArch: Shader 9 finished CTA #5 (49847,0), 3 CTAs running
GPGPU-Sim PTX: 22000000 instructions simulated : ctaid=(115,0,0) tid=(125,0,0)
GPGPU-Sim uArch: Shader 1 finished CTA #5 (49936,0), 3 CTAs running
GPGPU-Sim PTX: 22100000 instructions simulated : ctaid=(96,0,0) tid=(24,0,0)
GPGPU-Sim uArch: Shader 11 finished CTA #5 (50258,0), 3 CTAs running
GPGPU-Sim PTX: 22200000 instructions simulated : ctaid=(95,0,0) tid=(29,0,0)
GPGPU-Sim uArch: cycles simulated: 50500  inst.: 21228741 (ipc=420.4) sim_rate=451675 (inst/sec) elapsed = 0:0:00:47 / Sun Feb 28 21:31:04 2016
GPGPU-Sim PTX: 22300000 instructions simulated : ctaid=(106,0,0) tid=(147,0,0)
GPGPU-Sim PTX: 22400000 instructions simulated : ctaid=(124,0,0) tid=(155,0,0)
GPGPU-Sim PTX: 22500000 instructions simulated : ctaid=(98,0,0) tid=(251,0,0)
GPGPU-Sim PTX: 22600000 instructions simulated : ctaid=(93,0,0) tid=(219,0,0)
GPGPU-Sim PTX: 22700000 instructions simulated : ctaid=(126,0,0) tid=(155,0,0)
GPGPU-Sim PTX: 22800000 instructions simulated : ctaid=(116,0,0) tid=(195,0,0)
GPGPU-Sim uArch: cycles simulated: 52000  inst.: 21750950 (ipc=418.3) sim_rate=453144 (inst/sec) elapsed = 0:0:00:48 / Sun Feb 28 21:31:05 2016
GPGPU-Sim PTX: 22900000 instructions simulated : ctaid=(101,0,0) tid=(59,0,0)
GPGPU-Sim PTX: 23000000 instructions simulated : ctaid=(94,0,0) tid=(181,0,0)
GPGPU-Sim PTX: 23100000 instructions simulated : ctaid=(120,0,0) tid=(149,0,0)
GPGPU-Sim PTX: 23200000 instructions simulated : ctaid=(98,0,0) tid=(225,0,0)
GPGPU-Sim PTX: 23300000 instructions simulated : ctaid=(119,0,0) tid=(145,0,0)
GPGPU-Sim PTX: 23400000 instructions simulated : ctaid=(99,0,0) tid=(254,0,0)
GPGPU-Sim PTX: 23500000 instructions simulated : ctaid=(107,0,0) tid=(149,0,0)
GPGPU-Sim uArch: cycles simulated: 53500  inst.: 22425179 (ipc=419.2) sim_rate=457656 (inst/sec) elapsed = 0:0:00:49 / Sun Feb 28 21:31:06 2016
GPGPU-Sim uArch: Shader 4 finished CTA #0 (53563,0), 1 CTAs running
GPGPU-Sim PTX: 23600000 instructions simulated : ctaid=(94,0,0) tid=(111,0,0)
GPGPU-Sim PTX: 23700000 instructions simulated : ctaid=(101,0,0) tid=(133,0,0)
GPGPU-Sim uArch: Shader 13 finished CTA #0 (54035,0), 1 CTAs running
GPGPU-Sim PTX: 23800000 instructions simulated : ctaid=(95,0,0) tid=(57,0,0)
GPGPU-Sim PTX: 23900000 instructions simulated : ctaid=(114,0,0) tid=(0,0,0)
GPGPU-Sim uArch: Shader 11 finished CTA #0 (54279,0), 2 CTAs running
GPGPU-Sim PTX: 24000000 instructions simulated : ctaid=(122,0,0) tid=(39,0,0)
GPGPU-Sim uArch: cycles simulated: 54500  inst.: 22904368 (ipc=420.3) sim_rate=458087 (inst/sec) elapsed = 0:0:00:50 / Sun Feb 28 21:31:07 2016
GPGPU-Sim uArch: Shader 5 finished CTA #0 (54588,0), 1 CTAs running
GPGPU-Sim PTX: 24100000 instructions simulated : ctaid=(124,0,0) tid=(201,0,0)
GPGPU-Sim uArch: Shader 14 finished CTA #0 (54732,0), 1 CTAs running
GPGPU-Sim uArch: Shader 9 finished CTA #0 (54804,0), 2 CTAs running
GPGPU-Sim uArch: Shader 7 finished CTA #0 (54924,0), 1 CTAs running
GPGPU-Sim PTX: 24200000 instructions simulated : ctaid=(112,0,0) tid=(80,0,0)
GPGPU-Sim uArch: Shader 6 finished CTA #0 (55096,0), 2 CTAs running
GPGPU-Sim uArch: Shader 1 finished CTA #0 (55128,0), 2 CTAs running
GPGPU-Sim PTX: 24300000 instructions simulated : ctaid=(124,0,0) tid=(18,0,0)
GPGPU-Sim uArch: Shader 8 finished CTA #0 (55416,0), 2 CTAs running
GPGPU-Sim uArch: Shader 0 finished CTA #0 (55420,0), 1 CTAs running
GPGPU-Sim uArch: Shader 10 finished CTA #0 (55467,0), 2 CTAs running
GPGPU-Sim uArch: Shader 2 finished CTA #0 (55545,0), 2 CTAs running
GPGPU-Sim PTX: 24400000 instructions simulated : ctaid=(124,0,0) tid=(75,0,0)
GPGPU-Sim uArch: Shader 12 finished CTA #0 (55710,0), 1 CTAs running
GPGPU-Sim uArch: Shader 3 finished CTA #0 (55745,0), 2 CTAs running
GPGPU-Sim uArch: Shader 4 finished CTA #1 (55752,0), 0 CTAs running
GPGPU-Sim uArch: Shader 4 empty (release kernel 1 '_Z13scalarProdGPUPfS_S_ii').
GPGPU-Sim uArch: cycles simulated: 56000  inst.: 23344958 (ipc=416.9) sim_rate=457744 (inst/sec) elapsed = 0:0:00:51 / Sun Feb 28 21:31:08 2016
GPGPU-Sim PTX: 24500000 instructions simulated : ctaid=(106,0,0) tid=(75,0,0)
GPGPU-Sim PTX: 24600000 instructions simulated : ctaid=(125,0,0) tid=(99,0,0)
GPGPU-Sim PTX: 24700000 instructions simulated : ctaid=(104,0,0) tid=(63,0,0)
GPGPU-Sim PTX: 24800000 instructions simulated : ctaid=(112,0,0) tid=(25,0,0)
GPGPU-Sim uArch: Shader 13 finished CTA #1 (57113,0), 0 CTAs running
GPGPU-Sim uArch: Shader 13 empty (release kernel 1 '_Z13scalarProdGPUPfS_S_ii').
GPGPU-Sim PTX: 24900000 instructions simulated : ctaid=(114,0,0) tid=(237,0,0)
GPGPU-Sim uArch: cycles simulated: 57500  inst.: 23832363 (ipc=414.5) sim_rate=458314 (inst/sec) elapsed = 0:0:00:52 / Sun Feb 28 21:31:09 2016
GPGPU-Sim PTX: 25000000 instructions simulated : ctaid=(117,0,0) tid=(156,0,0)
GPGPU-Sim PTX: 25100000 instructions simulated : ctaid=(103,0,0) tid=(193,0,0)
GPGPU-Sim uArch: Shader 3 finished CTA #1 (57813,0), 1 CTAs running
GPGPU-Sim uArch: Shader 5 finished CTA #1 (57819,0), 0 CTAs running
GPGPU-Sim uArch: Shader 5 empty (release kernel 1 '_Z13scalarProdGPUPfS_S_ii').
GPGPU-Sim uArch: Shader 7 finished CTA #1 (57838,0), 0 CTAs running
GPGPU-Sim uArch: Shader 7 empty (release kernel 1 '_Z13scalarProdGPUPfS_S_ii').
GPGPU-Sim uArch: Shader 14 finished CTA #1 (58022,0), 0 CTAs running
GPGPU-Sim uArch: Shader 14 empty (release kernel 1 '_Z13scalarProdGPUPfS_S_ii').
GPGPU-Sim uArch: Shader 12 finished CTA #1 (58145,0), 0 CTAs running
GPGPU-Sim uArch: Shader 12 empty (release kernel 1 '_Z13scalarProdGPUPfS_S_ii').
GPGPU-Sim PTX: 25200000 instructions simulated : ctaid=(117,0,0) tid=(155,0,0)
GPGPU-Sim uArch: Shader 2 finished CTA #1 (58380,0), 1 CTAs running
GPGPU-Sim uArch: Shader 8 finished CTA #1 (58383,0), 1 CTAs running
GPGPU-Sim uArch: Shader 6 finished CTA #1 (58588,0), 1 CTAs running
GPGPU-Sim uArch: Shader 1 finished CTA #1 (58710,0), 1 CTAs running
GPGPU-Sim uArch: Shader 0 finished CTA #1 (58770,0), 0 CTAs running
GPGPU-Sim uArch: Shader 0 empty (release kernel 1 '_Z13scalarProdGPUPfS_S_ii').
GPGPU-Sim uArch: Shader 9 finished CTA #1 (58783,0), 1 CTAs running
GPGPU-Sim uArch: Shader 11 finished CTA #1 (58821,0), 1 CTAs running
GPGPU-Sim uArch: Shader 10 finished CTA #1 (59008,0), 1 CTAs running
GPGPU-Sim PTX: 25300000 instructions simulated : ctaid=(122,0,0) tid=(15,0,0)
GPGPU-Sim PTX: 25400000 instructions simulated : ctaid=(121,0,0) tid=(111,0,0)
GPGPU-Sim PTX: 25500000 instructions simulated : ctaid=(124,0,0) tid=(253,0,0)
GPGPU-Sim uArch: Shader 3 finished CTA #2 (60484,0), 0 CTAs running
GPGPU-Sim uArch: Shader 3 empty (release kernel 1 '_Z13scalarProdGPUPfS_S_ii').
GPGPU-Sim uArch: cycles simulated: 60500  inst.: 24368152 (ipc=402.8) sim_rate=459776 (inst/sec) elapsed = 0:0:00:53 / Sun Feb 28 21:31:10 2016
GPGPU-Sim uArch: Shader 11 finished CTA #2 (60697,0), 0 CTAs running
GPGPU-Sim uArch: Shader 11 empty (release kernel 1 '_Z13scalarProdGPUPfS_S_ii').
GPGPU-Sim uArch: Shader 8 finished CTA #2 (60810,0), 0 CTAs running
GPGPU-Sim uArch: Shader 8 empty (release kernel 1 '_Z13scalarProdGPUPfS_S_ii').
GPGPU-Sim uArch: Shader 6 finished CTA #2 (60891,0), 0 CTAs running
GPGPU-Sim uArch: Shader 6 empty (release kernel 1 '_Z13scalarProdGPUPfS_S_ii').
GPGPU-Sim uArch: Shader 10 finished CTA #2 (60974,0), 0 CTAs running
GPGPU-Sim uArch: Shader 10 empty (release kernel 1 '_Z13scalarProdGPUPfS_S_ii').
GPGPU-Sim uArch: Shader 2 finished CTA #2 (61091,0), 0 CTAs running
GPGPU-Sim uArch: Shader 2 empty (release kernel 1 '_Z13scalarProdGPUPfS_S_ii').
GPGPU-Sim PTX: 25600000 instructions simulated : ctaid=(120,0,0) tid=(19,0,0)
GPGPU-Sim uArch: Shader 1 finished CTA #2 (61774,0), 0 CTAs running
GPGPU-Sim uArch: Shader 1 empty (release kernel 1 '_Z13scalarProdGPUPfS_S_ii').
GPGPU-Sim uArch: Shader 9 finished CTA #2 (62043,0), 0 CTAs running
GPGPU-Sim uArch: Shader 9 empty (release kernel 1 '_Z13scalarProdGPUPfS_S_ii').
GPGPU-Sim uArch: GPU detected kernel '_Z13scalarProdGPUPfS_S_ii' finished on shader 9.
GPGPU-Sim: synchronize waiting for inactive GPU simulation
kernel_name = _Z13scalarProdGPUPfS_S_ii 
kernel_launch_uid = 1 
gpu_sim_cycle = 62044
gpu_sim_insn = 24441600
gpu_ipc =     393.9398
gpu_tot_sim_cycle = 62044
gpu_tot_sim_insn = 24441600
gpu_tot_ipc =     393.9398
gpu_tot_issued_cta = 128
gpu_stall_dramfull = 40464
gpu_stall_icnt2sh    = 315289
gpu_total_sim_rate=461162

========= Core cache stats =========
L1I_cache:
	L1I_total_cache_accesses = 463616
	L1I_total_cache_misses = 2064
	L1I_total_cache_miss_rate = 0.0045
	L1I_total_cache_pending_hits = 0
	L1I_total_cache_reservation_fails = 6316
L1D_cache:
	L1D_cache_core[0]: Access = 4112, Miss = 4112, Miss_rate = 1.000, Pending_hits = 0, Reservation_fails = 32605
	L1D_cache_core[1]: Access = 4626, Miss = 4626, Miss_rate = 1.000, Pending_hits = 0, Reservation_fails = 33713
	L1D_cache_core[2]: Access = 4626, Miss = 4626, Miss_rate = 1.000, Pending_hits = 0, Reservation_fails = 32659
	L1D_cache_core[3]: Access = 4626, Miss = 4626, Miss_rate = 1.000, Pending_hits = 0, Reservation_fails = 33765
	L1D_cache_core[4]: Access = 4112, Miss = 4112, Miss_rate = 1.000, Pending_hits = 0, Reservation_fails = 29911
	L1D_cache_core[5]: Access = 4112, Miss = 4112, Miss_rate = 1.000, Pending_hits = 0, Reservation_fails = 31312
	L1D_cache_core[6]: Access = 4626, Miss = 4626, Miss_rate = 1.000, Pending_hits = 0, Reservation_fails = 32921
	L1D_cache_core[7]: Access = 4112, Miss = 4112, Miss_rate = 1.000, Pending_hits = 0, Reservation_fails = 31204
	L1D_cache_core[8]: Access = 4626, Miss = 4626, Miss_rate = 1.000, Pending_hits = 0, Reservation_fails = 32984
	L1D_cache_core[9]: Access = 4626, Miss = 4626, Miss_rate = 1.000, Pending_hits = 0, Reservation_fails = 32438
	L1D_cache_core[10]: Access = 4626, Miss = 4626, Miss_rate = 1.000, Pending_hits = 0, Reservation_fails = 33580
	L1D_cache_core[11]: Access = 4626, Miss = 4626, Miss_rate = 1.000, Pending_hits = 0, Reservation_fails = 33933
	L1D_cache_core[12]: Access = 4112, Miss = 4112, Miss_rate = 1.000, Pending_hits = 0, Reservation_fails = 31302
	L1D_cache_core[13]: Access = 4112, Miss = 4112, Miss_rate = 1.000, Pending_hits = 0, Reservation_fails = 30632
	L1D_cache_core[14]: Access = 4112, Miss = 4112, Miss_rate = 1.000, Pending_hits = 0, Reservation_fails = 31576
	L1D_total_cache_accesses = 65792
	L1D_total_cache_misses = 65792
	L1D_total_cache_miss_rate = 1.0000
	L1D_total_cache_pending_hits = 0
	L1D_total_cache_reservation_fails = 484535
	L1D_cache_data_port_util = 0.000
	L1D_cache_fill_port_util = 0.073
L1C_cache:
	L1C_total_cache_accesses = 19712
	L1C_total_cache_misses = 480
	L1C_total_cache_miss_rate = 0.0244
	L1C_total_cache_pending_hits = 0
	L1C_total_cache_reservation_fails = 3264
L1T_cache:
	L1T_total_cache_accesses = 0
	L1T_total_cache_misses = 0
	L1T_total_cache_pending_hits = 0
	L1T_total_cache_reservation_fails = 0

Total_core_cache_stats:
	Total_core_cache_stats_breakdown[GLOBAL_ACC_R][MISS] = 65536
	Total_core_cache_stats_breakdown[GLOBAL_ACC_R][RESERVATION_FAIL] = 484381
	Total_core_cache_stats_breakdown[CONST_ACC_R][HIT] = 19232
	Total_core_cache_stats_breakdown[CONST_ACC_R][MISS] = 480
	Total_core_cache_stats_breakdown[CONST_ACC_R][RESERVATION_FAIL] = 3264
	Total_core_cache_stats_breakdown[GLOBAL_ACC_W][MISS] = 256
	Total_core_cache_stats_breakdown[GLOBAL_ACC_W][RESERVATION_FAIL] = 154
	Total_core_cache_stats_breakdown[INST_ACC_R][HIT] = 461552
	Total_core_cache_stats_breakdown[INST_ACC_R][MISS] = 2064
	Total_core_cache_stats_breakdown[INST_ACC_R][RESERVATION_FAIL] = 6316
Shader 0 warp_id issue ditsribution:
warp_id:
0, 1, 2, 3, 4, 5, 6, 7, 8, 9, 10, 11, 12, 13, 14, 15, 16, 17, 18, 19, 20, 21, 22, 23, 24, 25, 26, 27, 28, 29, 30, 31, 32, 33, 34, 35, 36, 37, 38, 39, 40, 41, 42, 43, 44, 45, 46, 47, 
distro:
2148, 1644, 1564, 1564, 1484, 1484, 1484, 1484, 2148, 1644, 1564, 1564, 1484, 1484, 1484, 1484, 1074, 822, 782, 782, 742, 742, 742, 742, 1074, 822, 782, 782, 742, 742, 742, 742, 1074, 822, 782, 782, 742, 742, 742, 742, 1074, 822, 782, 782, 742, 742, 742, 742, 
gpgpu_n_tot_thrd_icount = 26329088
gpgpu_n_tot_w_icount = 822784
gpgpu_n_stall_shd_mem = 487799
gpgpu_n_mem_read_local = 0
gpgpu_n_mem_write_local = 0
gpgpu_n_mem_read_global = 65536
gpgpu_n_mem_write_global = 256
gpgpu_n_mem_texture = 0
gpgpu_n_mem_const = 15
gpgpu_n_load_insn  = 2097152
gpgpu_n_store_insn = 256
gpgpu_n_shmem_insn = 1048064
gpgpu_n_tex_insn = 0
gpgpu_n_const_mem_insn = 0
gpgpu_n_param_mem_insn = 622848
gpgpu_n_shmem_bkconflict = 0
gpgpu_n_cache_bkconflict = 0
gpgpu_n_intrawarp_mshr_merge = 0
gpgpu_n_cmem_portconflict = 3264
gpgpu_stall_shd_mem[c_mem][bk_conf] = 3264
gpgpu_stall_shd_mem[c_mem][mshr_rc] = 0
gpgpu_stall_shd_mem[c_mem][icnt_rc] = 0
gpgpu_stall_shd_mem[c_mem][data_port_stall] = 0
gpgpu_stall_shd_mem[t_mem][mshr_rc] = 0
gpgpu_stall_shd_mem[t_mem][icnt_rc] = 0
gpgpu_stall_shd_mem[t_mem][data_port_stall] = 0
gpgpu_stall_shd_mem[s_mem][bk_conf] = 0
gpgpu_stall_shd_mem[gl_mem][bk_conf] = 0
gpgpu_stall_shd_mem[gl_mem][coal_stall] = 484535
gpgpu_stall_shd_mem[gl_mem][data_port_stall] = 0
gpgpu_stall_shd_mem[g_mem_ld][mshr_rc] = 0
gpgpu_stall_shd_mem[g_mem_ld][icnt_rc] = 0
gpgpu_stall_shd_mem[g_mem_ld][wb_icnt_rc] = 0
gpgpu_stall_shd_mem[g_mem_ld][wb_rsrv_fail] = 0
gpgpu_stall_shd_mem[g_mem_st][mshr_rc] = 0
gpgpu_stall_shd_mem[g_mem_st][icnt_rc] = 0
gpgpu_stall_shd_mem[g_mem_st][wb_icnt_rc] = 0
gpgpu_stall_shd_mem[g_mem_st][wb_rsrv_fail] = 0
gpgpu_stall_shd_mem[l_mem_ld][mshr_rc] = 0
gpgpu_stall_shd_mem[l_mem_ld][icnt_rc] = 0
gpgpu_stall_shd_mem[l_mem_ld][wb_icnt_rc] = 0
gpgpu_stall_shd_mem[l_mem_ld][wb_rsrv_fail] = 0
gpgpu_stall_shd_mem[l_mem_st][mshr_rc] = 0
gpgpu_stall_shd_mem[l_mem_st][icnt_rc] = 0
gpgpu_stall_shd_mem[l_mem_ld][wb_icnt_rc] = 0
gpgpu_stall_shd_mem[l_mem_ld][wb_rsrv_fail] = 0
gpu_reg_bank_conflict_stalls = 0
Warp Occupancy Distribution:
Stall:631291	W0_Idle:26351	W0_Scoreboard:304050	W1:6656	W2:5120	W3:0	W4:5120	W5:0	W6:0	W7:0	W8:5120	W9:0	W10:0	W11:0	W12:0	W13:0	W14:0	W15:0	W16:5120	W17:0	W18:0	W19:0	W20:0	W21:0	W22:0	W23:0	W24:0	W25:0	W26:0	W27:0	W28:0	W29:0	W30:0	W31:0	W32:795648
traffic_breakdown_coretomem[CONST_ACC_R] = 120 {8:15,}
traffic_breakdown_coretomem[GLOBAL_ACC_R] = 524288 {8:65536,}
traffic_breakdown_coretomem[GLOBAL_ACC_W] = 10240 {40:256,}
traffic_breakdown_coretomem[INST_ACC_R] = 840 {8:105,}
traffic_breakdown_memtocore[CONST_ACC_R] = 1080 {72:15,}
traffic_breakdown_memtocore[GLOBAL_ACC_R] = 8912896 {136:65536,}
traffic_breakdown_memtocore[GLOBAL_ACC_W] = 2048 {8:256,}
traffic_breakdown_memtocore[INST_ACC_R] = 14280 {136:105,}
maxmrqlatency = 356 
maxdqlatency = 0 
maxmflatency = 809 
averagemflatency = 353 
max_icnt2mem_latency = 407 
max_icnt2sh_latency = 62043 
mrq_lat_table:39944 	1613 	2027 	4178 	7756 	6360 	3276 	411 	7 	0 	0 	0 	0 	0 	0 	0 	0 	0 	0 	0 	0 	0 	0 	0 	0 	0 	0 	0 	0 	0 	0 	0 	
dq_lat_table:0 	0 	0 	0 	0 	0 	0 	0 	0 	0 	0 	0 	0 	0 	0 	0 	0 	0 	0 	0 	0 	0 	0 	0 	0 	0 	0 	0 	0 	0 	0 	0 	
mf_lat_table:0 	0 	0 	0 	0 	0 	0 	226 	62748 	2833 	0 	0 	0 	0 	0 	0 	0 	0 	0 	0 	0 	0 	0 	0 	0 	0 	0 	0 	0 	0 	0 	0 	
icnt2mem_lat_table:0 	0 	0 	59422 	2617 	1472 	1613 	764 	24 	0 	0 	0 	0 	0 	0 	0 	0 	0 	0 	0 	0 	0 	0 	0 	
icnt2sh_lat_table:0 	0 	0 	8358 	38286 	18278 	629 	0 	0 	0 	0 	0 	0 	0 	93 	163 	0 	0 	0 	0 	0 	0 	0 	0 	
mf_lat_pw_table:0 	0 	0 	0 	0 	0 	0 	3 	119 	0 	0 	0 	0 	0 	0 	0 	0 	0 	0 	0 	0 	0 	0 	0 	0 	0 	0 	0 	0 	0 	0 	0 	
maximum concurrent accesses to same row:
dram[0]:         4         4         6         6         6         6         6         5         6         6         6         6         6         6         5         4 
dram[1]:         5         5         6         6         6         6         6         6         6         4        10         7         6         7         5         5 
dram[2]:         5         5         6         5         6         6         6         5         6         6         6         6         6         6         4         6 
dram[3]:         4         5         7         6         6         6         6         6         6         6         6         6         5         6         5         4 
dram[4]:         4         5         5         6         6         6         5         6         5         6         6         6         6         8         5         5 
dram[5]:         5         5         6         6         6         6         6         4         6         6         9         5         6         8         5         4 
maximum service time to same row:
dram[0]:      1046      1931      1913      1916      1929      1921      1938      1913      1906      1947      1910      1950      1932      1937      1951      1929 
dram[1]:      1431      1935      1917      1921      1933      1925      1944      1916      1913      1951      1915      1987      1937      1941      1957      1932 
dram[2]:      1939      1907      1921      1938      1943      1929      1949      1909      1915      1922      1919      1925      1941      1960      1963      1944 
dram[3]:      1944      1910      1925      1943      1947      1931      1954      1915      1919      1926      1922      1929      1945      1965      2086      1949 
dram[4]:      1922      1915      1907      1949      1913      1938      1904      1919      1937      1931      1938      1932      1929      1972      1921      1954 
dram[5]:      1926      1919      1910      1953      1916      1941      1909      1922      1941      1935      1943      1938      1932      1975      1925      1957 
average row accesses per activate:
dram[0]:  1.328740  1.239852  1.344000  1.304854  1.377778  1.294118  1.361702  1.377691  1.315888  1.338403  1.335938  1.318095  1.408805  1.371429  1.328063  1.322835 
dram[1]:  1.318982  1.267925  1.354839  1.344000  1.355865  1.347826  1.348659  1.333333  1.402390  1.340952  1.362550  1.321773  1.388430  1.374233  1.325444  1.352113 
dram[2]:  1.262172  1.309942  1.320236  1.333333  1.361277  1.452229  1.318352  1.369650  1.338403  1.356455  1.266667  1.316602  1.349398  1.429787  1.346693  1.360324 
dram[3]:  1.267420  1.352113  1.307393  1.379877  1.364000  1.365269  1.356455  1.356455  1.364341  1.377691  1.310345  1.326848  1.312500  1.429787  1.400000  1.344000 
dram[4]:  1.344000  1.258427  1.297297  1.289827  1.420833  1.307839  1.364341  1.353846  1.333333  1.380392  1.357564  1.299048  1.391304  1.394191  1.349398  1.307393 
dram[5]:  1.322835  1.249071  1.408805  1.341317  1.369478  1.310345  1.318352  1.343511  1.356455  1.338403  1.365805  1.345168  1.442060  1.363083  1.368635  1.352113 
average row locality = 65572/48817 = 1.343221
number of total memory accesses made:
dram[0]:         0         0         0         0         0         0         0         0         0         0         0         0         0         0         0         0 
dram[1]:         0         0         0         0         0         0         0         0         0         0         0         0         0         0         0         0 
dram[2]:         0         0         0         0         0         0         0         0         0         0         0         0         0         0         0         0 
dram[3]:         0         0         0         0         0         0         0         0         0         0         0         0         0         0         0         0 
dram[4]:         0         0         0         0         0         0         0         0         0         0         0         0         0         0         0         0 
dram[5]:         0         0         0         0         0         0         0         0         0         0         0         0         0         0         0         0 
total accesses: 0
min_bank_accesses = 0!
min_chip_accesses = 0!
number of total read accesses:
dram[0]:       675       672       672       672       682       682       704       704       704       704       684       684       672       672       672       672 
dram[1]:       674       672       672       672       682       682       704       704       704       704       684       684       672       672       672       672 
dram[2]:       674       672       672       672       682       684       704       704       704       704       684       682       672       672       672       672 
dram[3]:       673       672       672       672       682       684       704       704       704       704       684       682       672       672       672       672 
dram[4]:       672       672       672       672       682       684       704       704       704       704       684       682       672       672       672       672 
dram[5]:       672       672       672       672       682       684       704       704       704       704       684       682       672       672       672       672 
total reads: 65552
bank skew: 704/672 = 1.05
chip skew: 10927/10924 = 1.00
number of total write accesses:
dram[0]:         0         0         0         0         0         0         0         0         0         0         0         8         0         0         0         0 
dram[1]:         0         0         0         0         0         0         0         0         0         0         0         2         0         0         0         0 
dram[2]:         0         0         0         0         0         0         0         0         0         0         0         0         0         0         0         0 
dram[3]:         0         0         0         0         0         0         0         0         0         0         0         0         0         0         0         0 
dram[4]:         0         0         0         0         0         0         0         0         0         0         7         0         0         0         0         0 
dram[5]:         0         0         0         0         0         0         0         0         0         0         3         0         0         0         0         0 
total reads: 20
min_bank_accesses = 0!
min_chip_accesses = 0!
average mf latency per bank:
dram[0]:        359       348       350       348       349       344       357       352       347       346       346       361       348       349       352       347
dram[1]:        350       340       353       334       353       337       361       339       349       335       356       351       356       340       356       340
dram[2]:        342       376       344       382       348       388       347       389       339       378       341       381       340       382       350       384
dram[3]:        349       347       345       345       348       346       354       349       348       343       348       345       353       349       356       348
dram[4]:        375       338       371       337       373       343       384       340       370       336       394       336       378       334       372       339
dram[5]:        384       338       382       334       384       338       385       338       372       333       387       332       374       342       381       341
maximum mf latency per bank:
dram[0]:        640       588       625       552       624       590       674       616       621       591       583       573       572       656       690       617
dram[1]:        611       608       589       546       646       569       638       563       627       544       659       559       619       626       636       639
dram[2]:        597       773       616       766       576       766       628       790       619       726       569       754       613       809       711       739
dram[3]:        706       551       622       573       632       630       665       559       707       559       650       567       619       595       797       568
dram[4]:        730       530       671       550       697       566       737       604       707       555       693       574       702       578       744       586
dram[5]:        645       555       737       594       690       612       738       531       724       560       651       516       660       581       659       569

Number of Memory Banks Accessed per Memory Operation per Warp (from 0):
0	0	0	0	0	0	0	0	0	0	0	0	0	0	0	0	0	0	0	0	0	0	0	0	0	0	0	0	0	0	0	0	0	0	0	0	0	0	0	0	0	0	0	0	0	0	0	0	0	0	0	0	0	0	0	0	0	0	0	0	0	0	0	0	0	0	0	0	0	0	0	0	0	0	0	0	0	0	0	0	0	0	0	0	0	0	0	0	0	0	0	0	0	0	0	0	
Average # of Memory Banks Accessed per Memory Operation per Warp=-nan

position of mrq chosen
0	0	0	0	0	0	0	0	0	0	0	0	0	0	0	0	

average position of mrq chosen = -nan
Memory Partition 0: 
Cache L2_bank_000:
MSHR contents

Cache L2_bank_001:
MSHR contents

In Dram Latency Queue (total = 0): 
DRAM[0]: 16 bks, busW=4 BL=8 CL=12, tRRD=2 tCCD=6, tRCD=12 tRAS=28 tRP=12 tRC=40
n_cmd=81897 n_nop=43661 n_act=8194 n_pre=8178 n_req=10935 n_rd=21854 n_write=10 bw_util=0.5339
n_activity=74530 dram_eff=0.5867
bk0: 1350a 57222i bk1: 1344a 56893i bk2: 1344a 57425i bk3: 1344a 56893i bk4: 1364a 57049i bk5: 1364a 56187i bk6: 1408a 55371i bk7: 1408a 55236i bk8: 1408a 56460i bk9: 1408a 56963i bk10: 1368a 57469i bk11: 1368a 55687i bk12: 1344a 58057i bk13: 1344a 57220i bk14: 1344a 56432i bk15: 1344a 55916i 
dram_util_bins: 0 0 0 0 0 0 0 0 0 0
dram_eff_bins: 0 0 0 0 0 0 0 0 0 0
mrqq: max=16 avg=2.26876
Memory Partition 1: 
Cache L2_bank_002:
MSHR contents

Cache L2_bank_003:
MSHR contents

In Dram Latency Queue (total = 0): 
DRAM[1]: 16 bks, busW=4 BL=8 CL=12, tRRD=2 tCCD=6, tRCD=12 tRAS=28 tRP=12 tRC=40
n_cmd=81897 n_nop=43817 n_act=8121 n_pre=8105 n_req=10928 n_rd=21852 n_write=2 bw_util=0.5337
n_activity=74539 dram_eff=0.5864
bk0: 1348a 58112i bk1: 1344a 58094i bk2: 1344a 58519i bk3: 1344a 58809i bk4: 1364a 57058i bk5: 1364a 57479i bk6: 1408a 56178i bk7: 1408a 55688i bk8: 1408a 58252i bk9: 1408a 58162i bk10: 1368a 57759i bk11: 1368a 57330i bk12: 1344a 57820i bk13: 1344a 58334i bk14: 1344a 56987i bk15: 1344a 57538i 
dram_util_bins: 0 0 0 0 0 0 0 0 0 0
dram_eff_bins: 0 0 0 0 0 0 0 0 0 0
mrqq: max=16 avg=2.10005
Memory Partition 2: 
Cache L2_bank_004:
MSHR contents

Cache L2_bank_005:
MSHR contents

In Dram Latency Queue (total = 0): 
DRAM[2]: 16 bks, busW=4 BL=8 CL=12, tRRD=2 tCCD=6, tRCD=12 tRAS=28 tRP=12 tRC=40
n_cmd=81897 n_nop=43773 n_act=8144 n_pre=8128 n_req=10926 n_rd=21852 n_write=0 bw_util=0.5336
n_activity=73988 dram_eff=0.5907
bk0: 1348a 57316i bk1: 1344a 56775i bk2: 1344a 57676i bk3: 1344a 55982i bk4: 1364a 56469i bk5: 1368a 56610i bk6: 1408a 54934i bk7: 1408a 53731i bk8: 1408a 57240i bk9: 1408a 56428i bk10: 1368a 56373i bk11: 1364a 55845i bk12: 1344a 57407i bk13: 1344a 56790i bk14: 1344a 56321i bk15: 1344a 55422i 
dram_util_bins: 0 0 0 0 0 0 0 0 0 0
dram_eff_bins: 0 0 0 0 0 0 0 0 0 0
mrqq: max=16 avg=2.63533
Memory Partition 3: 
Cache L2_bank_006:
MSHR contents

Cache L2_bank_007:
MSHR contents

In Dram Latency Queue (total = 0): 
DRAM[3]: 16 bks, busW=4 BL=8 CL=12, tRRD=2 tCCD=6, tRCD=12 tRAS=28 tRP=12 tRC=40
n_cmd=81897 n_nop=43877 n_act=8093 n_pre=8077 n_req=10925 n_rd=21850 n_write=0 bw_util=0.5336
n_activity=74138 dram_eff=0.5894
bk0: 1346a 58062i bk1: 1344a 58565i bk2: 1344a 58626i bk3: 1344a 58945i bk4: 1364a 57999i bk5: 1368a 57343i bk6: 1408a 55782i bk7: 1408a 55963i bk8: 1408a 58239i bk9: 1408a 58237i bk10: 1368a 57586i bk11: 1364a 57914i bk12: 1344a 57451i bk13: 1344a 58560i bk14: 1344a 57611i bk15: 1344a 56185i 
dram_util_bins: 0 0 0 0 0 0 0 0 0 0
dram_eff_bins: 0 0 0 0 0 0 0 0 0 0
mrqq: max=16 avg=2.01298
Memory Partition 4: 
Cache L2_bank_008:
MSHR contents

Cache L2_bank_009:
MSHR contents

In Dram Latency Queue (total = 0): 
DRAM[4]: 16 bks, busW=4 BL=8 CL=12, tRRD=2 tCCD=6, tRCD=12 tRAS=28 tRP=12 tRC=40
n_cmd=81897 n_nop=43734 n_act=8161 n_pre=8145 n_req=10931 n_rd=21848 n_write=9 bw_util=0.5338
n_activity=74220 dram_eff=0.589
bk0: 1344a 58096i bk1: 1344a 57485i bk2: 1344a 56508i bk3: 1344a 57364i bk4: 1364a 57284i bk5: 1368a 56686i bk6: 1408a 54891i bk7: 1408a 55505i bk8: 1408a 56531i bk9: 1408a 57541i bk10: 1368a 55129i bk11: 1364a 57206i bk12: 1344a 57053i bk13: 1344a 58193i bk14: 1344a 56160i bk15: 1344a 56606i 
dram_util_bins: 0 0 0 0 0 0 0 0 0 0
dram_eff_bins: 0 0 0 0 0 0 0 0 0 0
mrqq: max=16 avg=2.31905
Memory Partition 5: 
Cache L2_bank_010:
MSHR contents

Cache L2_bank_011:
MSHR contents

In Dram Latency Queue (total = 0): 
DRAM[5]: 16 bks, busW=4 BL=8 CL=12, tRRD=2 tCCD=6, tRCD=12 tRAS=28 tRP=12 tRC=40
n_cmd=81897 n_nop=43854 n_act=8104 n_pre=8088 n_req=10927 n_rd=21848 n_write=3 bw_util=0.5336
n_activity=74149 dram_eff=0.5894
bk0: 1344a 57074i bk1: 1344a 57014i bk2: 1344a 56929i bk3: 1344a 57997i bk4: 1364a 56205i bk5: 1368a 55951i bk6: 1408a 53483i bk7: 1408a 55127i bk8: 1408a 56805i bk9: 1408a 57449i bk10: 1368a 57077i bk11: 1364a 58015i bk12: 1344a 57329i bk13: 1344a 57106i bk14: 1344a 56108i bk15: 1344a 56369i 
dram_util_bins: 0 0 0 0 0 0 0 0 0 0
dram_eff_bins: 0 0 0 0 0 0 0 0 0 0
mrqq: max=16 avg=2.4655

========= L2 cache stats =========
L2_cache_bank[0]: Access = 5507, Miss = 5465, Miss_rate = 0.992, Pending_hits = 9, Reservation_fails = 1730
L2_cache_bank[1]: Access = 5524, Miss = 5462, Miss_rate = 0.989, Pending_hits = 4, Reservation_fails = 884
L2_cache_bank[2]: Access = 5492, Miss = 5464, Miss_rate = 0.995, Pending_hits = 6, Reservation_fails = 1293
L2_cache_bank[3]: Access = 5524, Miss = 5462, Miss_rate = 0.989, Pending_hits = 0, Reservation_fails = 581
L2_cache_bank[4]: Access = 5492, Miss = 5464, Miss_rate = 0.995, Pending_hits = 5, Reservation_fails = 592
L2_cache_bank[5]: Access = 5462, Miss = 5462, Miss_rate = 1.000, Pending_hits = 0, Reservation_fails = 2586
L2_cache_bank[6]: Access = 5477, Miss = 5463, Miss_rate = 0.997, Pending_hits = 3, Reservation_fails = 1186
L2_cache_bank[7]: Access = 5462, Miss = 5462, Miss_rate = 1.000, Pending_hits = 0, Reservation_fails = 745
L2_cache_bank[8]: Access = 5524, Miss = 5462, Miss_rate = 0.989, Pending_hits = 3, Reservation_fails = 1885
L2_cache_bank[9]: Access = 5462, Miss = 5462, Miss_rate = 1.000, Pending_hits = 0, Reservation_fails = 455
L2_cache_bank[10]: Access = 5524, Miss = 5462, Miss_rate = 0.989, Pending_hits = 1, Reservation_fails = 1910
L2_cache_bank[11]: Access = 5462, Miss = 5462, Miss_rate = 1.000, Pending_hits = 0, Reservation_fails = 582
L2_total_cache_accesses = 65912
L2_total_cache_misses = 65552
L2_total_cache_miss_rate = 0.9945
L2_total_cache_pending_hits = 31
L2_total_cache_reservation_fails = 14429
L2_total_cache_breakdown:
	L2_cache_stats_breakdown[GLOBAL_ACC_R][MISS] = 65536
	L2_cache_stats_breakdown[GLOBAL_ACC_R][RESERVATION_FAIL] = 13642
	L2_cache_stats_breakdown[CONST_ACC_R][HIT] = 11
	L2_cache_stats_breakdown[CONST_ACC_R][HIT_RESERVED] = 3
	L2_cache_stats_breakdown[CONST_ACC_R][MISS] = 1
	L2_cache_stats_breakdown[CONST_ACC_R][RESERVATION_FAIL] = 101
	L2_cache_stats_breakdown[GLOBAL_ACC_W][HIT] = 240
	L2_cache_stats_breakdown[GLOBAL_ACC_W][HIT_RESERVED] = 8
	L2_cache_stats_breakdown[GLOBAL_ACC_W][MISS] = 8
	L2_cache_stats_breakdown[GLOBAL_ACC_W][RESERVATION_FAIL] = 90
	L2_cache_stats_breakdown[INST_ACC_R][HIT] = 78
	L2_cache_stats_breakdown[INST_ACC_R][HIT_RESERVED] = 20
	L2_cache_stats_breakdown[INST_ACC_R][MISS] = 7
	L2_cache_stats_breakdown[INST_ACC_R][RESERVATION_FAIL] = 596
L2_cache_data_port_util = 0.001
L2_cache_fill_port_util = 0.352

icnt_total_pkts_mem_to_simt=328506
icnt_total_pkts_simt_to_mem=66168
LD_mem_lat_dist  0 0 0 0 0 0 0 0 0 0 0 0 0 0 0 0 0 0 0 0 0 0 0 0 0 0 0
ST_mem_lat_dist  0 0 0 0 0 0 0 0 0 0 0 0 0 0 0 0 0 0 0 0 0 0 0 0 0 0 0
----------------------------Interconnect-DETAILS--------------------------------
Class 0:
Packet latency average = 16.4615
	minimum = 6
	maximum = 209
Network latency average = 13.5367
	minimum = 6
	maximum = 209
Slowest packet = 27186
Flit latency average = 13.1889
	minimum = 6
	maximum = 209
Slowest flit = 80676
Fragmentation average = 0
	minimum = 0
	maximum = 0
Injected packet rate average = 0.0786921
	minimum = 0.0664045 (at node 0)
	maximum = 0.0890336 (at node 16)
Accepted packet rate average = 0.0786921
	minimum = 0.0664045 (at node 0)
	maximum = 0.0890336 (at node 16)
Injected flit rate average = 0.2356
	minimum = 0.0666624 (at node 0)
	maximum = 0.443314 (at node 15)
Accepted flit rate average= 0.2356
	minimum = 0.0880343 (at node 20)
	maximum = 0.372252 (at node 1)
Injected packet length average = 2.99395
Accepted packet length average = 2.99395
Total in-flight flits = 0 (0 measured)
====== Overall Traffic Statistics ======
====== Traffic class 0 ======
Packet latency average = 16.4615 (1 samples)
	minimum = 6 (1 samples)
	maximum = 209 (1 samples)
Network latency average = 13.5367 (1 samples)
	minimum = 6 (1 samples)
	maximum = 209 (1 samples)
Flit latency average = 13.1889 (1 samples)
	minimum = 6 (1 samples)
	maximum = 209 (1 samples)
Fragmentation average = 0 (1 samples)
	minimum = 0 (1 samples)
	maximum = 0 (1 samples)
Injected packet rate average = 0.0786921 (1 samples)
	minimum = 0.0664045 (1 samples)
	maximum = 0.0890336 (1 samples)
Accepted packet rate average = 0.0786921 (1 samples)
	minimum = 0.0664045 (1 samples)
	maximum = 0.0890336 (1 samples)
Injected flit rate average = 0.2356 (1 samples)
	minimum = 0.0666624 (1 samples)
	maximum = 0.443314 (1 samples)
Accepted flit rate average = 0.2356 (1 samples)
	minimum = 0.0880343 (1 samples)
	maximum = 0.372252 (1 samples)
Injected packet size average = 2.99395 (1 samples)
Accepted packet size average = 2.99395 (1 samples)
Hops average = 1 (1 samples)
----------------------------END-of-Interconnect-DETAILS-------------------------


gpgpu_simulation_time = 0 days, 0 hrs, 0 min, 53 sec (53 sec)
gpgpu_simulation_rate = 461162 (inst/sec)
gpgpu_simulation_rate = 1170 (cycle/sec)
GPGPU-Sim API: Stream Manager State
GPGPU-Sim: detected inactive GPU simulation thread
GPU time: 51974.007812 msecs.
Reading back GPU result...
Checking GPU results...
..running CPU scalar product calculation
...comparing the results
L1 error: 3.070748E-08
TEST PASSED
Shutting down...
