

        *** GPGPU-Sim Simulator Version 3.2.2  [build 0] ***


GPGPU-Sim PTX: simulation mode 0 (can change with PTX_SIM_MODE_FUNC environment variable:
               1=functional simulation only, 0=detailed performance simulator)
GPGPU-Sim: Configuration options:

-network_mode                           1 # Interconnection network mode
-inter_config_file   config_fermi_islip.icnt # Interconnection network config file
-gpgpu_ptx_use_cuobjdump                    1 # Use cuobjdump to extract ptx and sass from binaries
-gpgpu_experimental_lib_support                    0 # Try to extract code from cuda libraries [Broken because of unknown cudaGetExportTable]
-gpgpu_ptx_convert_to_ptxplus                    0 # Convert SASS (native ISA) to ptxplus and run ptxplus
-gpgpu_ptx_force_max_capability                   20 # Force maximum compute capability
-gpgpu_ptx_inst_debug_to_file                    0 # Dump executed instructions' debug information to file
-gpgpu_ptx_inst_debug_file       inst_debug.txt # Executed instructions' debug output file
-gpgpu_ptx_inst_debug_thread_uid                    1 # Thread UID for executed instructions' debug output
-gpgpu_simd_model                       1 # 1 = post-dominator
-gpgpu_shader_core_pipeline              1536:32 # shader core pipeline config, i.e., {<nthread>:<warpsize>}
-gpgpu_tex_cache:l1  4:128:24,L:R:m:N:L,F:128:4,128:2 # per-shader L1 texture cache  (READ-ONLY) config  {<nsets>:<bsize>:<assoc>,<rep>:<wr>:<alloc>:<wr_alloc>,<mshr>:<N>:<merge>,<mq>:<rf>}
-gpgpu_const_cache:l1 64:64:2,L:R:f:N:L,A:2:32,4 # per-shader L1 constant memory cache  (READ-ONLY) config  {<nsets>:<bsize>:<assoc>,<rep>:<wr>:<alloc>:<wr_alloc>,<mshr>:<N>:<merge>,<mq>} 
-gpgpu_cache:il1     4:128:4,L:R:f:N:L,A:2:32,4 # shader L1 instruction cache config  {<nsets>:<bsize>:<assoc>,<rep>:<wr>:<alloc>:<wr_alloc>,<mshr>:<N>:<merge>,<mq>} 
-gpgpu_cache:dl1     32:128:4,L:L:m:N:H,A:32:8,8 # per-shader L1 data cache config  {<nsets>:<bsize>:<assoc>,<rep>:<wr>:<alloc>:<wr_alloc>,<mshr>:<N>:<merge>,<mq> | none}
-gpgpu_cache:dl1PrefL1                 none # per-shader L1 data cache config  {<nsets>:<bsize>:<assoc>,<rep>:<wr>:<alloc>:<wr_alloc>,<mshr>:<N>:<merge>,<mq> | none}
-gpgpu_cache:dl1PreShared                 none # per-shader L1 data cache config  {<nsets>:<bsize>:<assoc>,<rep>:<wr>:<alloc>:<wr_alloc>,<mshr>:<N>:<merge>,<mq> | none}
-gmem_skip_L1D                          0 # global memory access skip L1D cache (implements -Xptxas -dlcm=cg, default=no skip)
-gpgpu_perfect_mem                      0 # enable perfect memory mode (no cache miss)
-n_regfile_gating_group                    4 # group of lanes that should be read/written together)
-gpgpu_clock_gated_reg_file                    0 # enable clock gated reg file for power calculations
-gpgpu_clock_gated_lanes                    0 # enable clock gated lanes for power calculations
-gpgpu_shader_registers                32768 # Number of registers per shader core. Limits number of concurrent CTAs. (default 8192)
-gpgpu_shader_cta                       8 # Maximum number of concurrent CTAs in shader (default 8)
-gpgpu_num_cta_barriers                   16 # Maximum number of named barriers per CTA (default 16)
-gpgpu_n_clusters                      15 # number of processing clusters
-gpgpu_n_cores_per_cluster                    1 # number of simd cores per cluster
-gpgpu_n_cluster_ejection_buffer_size                    8 # number of packets in ejection buffer
-gpgpu_n_ldst_response_buffer_size                    2 # number of response packets in ld/st unit ejection buffer
-gpgpu_shmem_size                   16384 # Size of shared memory per shader core (default 16kB)
-gpgpu_shmem_size                   49152 # Size of shared memory per shader core (default 16kB)
-gpgpu_shmem_size_PrefL1                16384 # Size of shared memory per shader core (default 16kB)
-gpgpu_shmem_size_PrefShared                16384 # Size of shared memory per shader core (default 16kB)
-gpgpu_shmem_num_banks                   32 # Number of banks in the shared memory in each shader core (default 16)
-gpgpu_shmem_limited_broadcast                    0 # Limit shared memory to do one broadcast per cycle (default on)
-gpgpu_shmem_warp_parts                    1 # Number of portions a warp is divided into for shared memory bank conflict check 
-gpgpu_warpdistro_shader                   -1 # Specify which shader core to collect the warp size distribution from
-gpgpu_warp_issue_shader                    0 # Specify which shader core to collect the warp issue distribution from
-gpgpu_local_mem_map                    1 # Mapping from local memory space address to simulated GPU physical address space (default = enabled)
-gpgpu_num_reg_banks                   16 # Number of register banks (default = 8)
-gpgpu_reg_bank_use_warp_id                    0 # Use warp ID in mapping registers to banks (default = off)
-gpgpu_operand_collector_num_units_sp                    6 # number of collector units (default = 4)
-gpgpu_operand_collector_num_units_sfu                    8 # number of collector units (default = 4)
-gpgpu_operand_collector_num_units_mem                    2 # number of collector units (default = 2)
-gpgpu_operand_collector_num_units_gen                    0 # number of collector units (default = 0)
-gpgpu_operand_collector_num_in_ports_sp                    2 # number of collector unit in ports (default = 1)
-gpgpu_operand_collector_num_in_ports_sfu                    1 # number of collector unit in ports (default = 1)
-gpgpu_operand_collector_num_in_ports_mem                    1 # number of collector unit in ports (default = 1)
-gpgpu_operand_collector_num_in_ports_gen                    0 # number of collector unit in ports (default = 0)
-gpgpu_operand_collector_num_out_ports_sp                    2 # number of collector unit in ports (default = 1)
-gpgpu_operand_collector_num_out_ports_sfu                    1 # number of collector unit in ports (default = 1)
-gpgpu_operand_collector_num_out_ports_mem                    1 # number of collector unit in ports (default = 1)
-gpgpu_operand_collector_num_out_ports_gen                    0 # number of collector unit in ports (default = 0)
-gpgpu_coalesce_arch                   13 # Coalescing arch (default = 13, anything else is off for now)
-gpgpu_num_sched_per_core                    2 # Number of warp schedulers per core
-gpgpu_max_insn_issue_per_warp                    1 # Max number of instructions that can be issued per warp in one cycle by scheduler
-gpgpu_simt_core_sim_order                    1 # Select the simulation order of cores in a cluster (0=Fix, 1=Round-Robin)
-gpgpu_pipeline_widths        2,1,1,2,1,1,2 # Pipeline widths ID_OC_SP,ID_OC_SFU,ID_OC_MEM,OC_EX_SP,OC_EX_SFU,OC_EX_MEM,EX_WB
-gpgpu_num_sp_units                     2 # Number of SP units (default=1)
-gpgpu_num_sfu_units                    1 # Number of SF units (default=1)
-gpgpu_num_mem_units                    1 # Number if ldst units (default=1) WARNING: not hooked up to anything
-gpgpu_scheduler                      gto # Scheduler configuration: < lrr | gto | two_level_active > If two_level_active:<num_active_warps>:<inner_prioritization>:<outer_prioritization>For complete list of prioritization values see shader.h enum scheduler_prioritization_typeDefault: gto
-gpgpu_dram_scheduler                    1 # 0 = fifo, 1 = FR-FCFS (defaul)
-gpgpu_dram_partition_queues              8:8:8:8 # i2$:$2d:d2$:$2i
-l2_ideal                               0 # Use a ideal L2 cache that always hit
-gpgpu_cache:dl2     64:128:32,L:B:m:W:L,A:32:4,4:0,32 # unified banked L2 data cache config  {<nsets>:<bsize>:<assoc>,<rep>:<wr>:<alloc>:<wr_alloc>,<mshr>:<N>:<merge>,<mq>}
-gpgpu_cache:dl2_texture_only                    0 # L2 cache used for texture only
-gpgpu_n_mem                            6 # number of memory modules (e.g. memory controllers) in gpu
-gpgpu_n_sub_partition_per_mchannel                    2 # number of memory subpartition in each memory module
-gpgpu_n_mem_per_ctrlr                    2 # number of memory chips per memory controller
-gpgpu_memlatency_stat                   14 # track and display latency statistics 0x2 enables MC, 0x4 enables queue logs
-gpgpu_frfcfs_dram_sched_queue_size                   16 # 0 = unlimited (default); # entries per chip
-gpgpu_dram_return_queue_size                  116 # 0 = unlimited (default); # entries per chip
-gpgpu_dram_buswidth                    4 # default = 4 bytes (8 bytes per cycle at DDR)
-gpgpu_dram_burst_length                    8 # Burst length of each DRAM request (default = 4 data bus cycle)
-dram_data_command_freq_ratio                    4 # Frequency ratio between DRAM data bus and command bus (default = 2 times, i.e. DDR)
-gpgpu_dram_timing_opt nbk=16:CCD=2:RRD=6:RCD=12:RAS=28:RP=12:RC=40: CL=12:WL=4:CDLR=5:WR=12:nbkgrp=4:CCDL=3:RTPL=2 # DRAM timing parameters = {nbk:tCCD:tRRD:tRCD:tRAS:tRP:tRC:CL:WL:tCDLR:tWR:nbkgrp:tCCDL:tRTPL}
-rop_latency                          120 # ROP queue latency (default 85)
-dram_latency                         100 # DRAM latency (default 30)
-gpgpu_mem_addr_mapping dramid@8;00000000.00000000.00000000.00000000.0000RRRR.RRRRRRRR.BBBCCCCB.CCSSSSSS # mapping memory address to dram model {dramid@<start bit>;<memory address map>}
-gpgpu_mem_addr_test                    0 # run sweep test to check address mapping for aliased address
-gpgpu_mem_address_mask                    1 # 0 = old addressing mask, 1 = new addressing mask, 2 = new add. mask + flipped bank sel and chip sel bits
-gpuwattch_xml_file  gpuwattch_gtx480.xml # GPUWattch XML file
-power_simulation_enabled                    0 # Turn on power simulator (1=On, 0=Off)
-power_per_cycle_dump                    0 # Dump detailed power output each cycle
-power_trace_enabled                    0 # produce a file for the power trace (1=On, 0=Off)
-power_trace_zlevel                     6 # Compression level of the power trace output log (0=no comp, 9=highest)
-steady_power_levels_enabled                    0 # produce a file for the steady power levels (1=On, 0=Off)
-steady_state_definition                  8:4 # allowed deviation:number of samples
-gpgpu_max_cycle                        0 # terminates gpu simulation early (0 = no limit)
-gpgpu_max_insn                         0 # terminates gpu simulation early (0 = no limit)
-gpgpu_max_cta                          0 # terminates gpu simulation early (0 = no limit)
-gpgpu_runtime_stat                   500 # display runtime statistics such as dram utilization {<freq>:<flag>}
-liveness_message_freq                    1 # Minimum number of seconds between simulation liveness messages (0 = always print)
-gpgpu_flush_l1_cache                    0 # Flush L1 cache at the end of each kernel call
-gpgpu_flush_l2_cache                    0 # Flush L2 cache at the end of each kernel call
-gpgpu_deadlock_detect                    1 # Stop the simulation at deadlock (1=on (default), 0=off)
-gpgpu_ptx_instruction_classification                    0 # if enabled will classify ptx instruction types per kernel (Max 255 kernels now)
-gpgpu_ptx_sim_mode                     0 # Select between Performance (default) or Functional simulation (1)
-gpgpu_clock_domains 700.0:700.0:700.0:924.0 # Clock Domain Frequencies in MhZ {<Core Clock>:<ICNT Clock>:<L2 Clock>:<DRAM Clock>}
-gpgpu_max_concurrent_kernel                    8 # maximum kernels that can run concurrently on GPU
-gpgpu_cflog_interval                    0 # Interval between each snapshot in control flow logger
-visualizer_enabled                     0 # Turn on visualizer output (1=On, 0=Off)
-visualizer_outputfile                 NULL # Specifies the output log file for visualizer
-visualizer_zlevel                      6 # Compression level of the visualizer output log (0=no comp, 9=highest)
-trace_enabled                          0 # Turn on traces
-trace_components                    none # comma seperated list of traces to enable. Complete list found in trace_streams.tup. Default none
-trace_sampling_core                    0 # The core which is printed using CORE_DPRINTF. Default 0
-trace_sampling_memory_partition                   -1 # The memory partition which is printed using MEMPART_DPRINTF. Default -1 (i.e. all)
-enable_ptx_file_line_stats                    1 # Turn on PTX source line statistic profiling. (1 = On)
-ptx_line_stats_filename gpgpu_inst_stats.txt # Output file for PTX source line statistics.
-save_embedded_ptx                      0 # saves ptx files embedded in binary as <n>.ptx
-keep                                   0 # keep intermediate files created by GPGPU-Sim when interfacing with external programs
-gpgpu_ptx_save_converted_ptxplus                    0 # Saved converted ptxplus to a file
-ptx_opcode_latency_int         4,13,4,5,145 # Opcode latencies for integers <ADD,MAX,MUL,MAD,DIV>Default 1,1,19,25,145
-ptx_opcode_latency_fp          4,13,4,5,39 # Opcode latencies for single precision floating points <ADD,MAX,MUL,MAD,DIV>Default 1,1,1,1,30
-ptx_opcode_latency_dp         8,19,8,8,330 # Opcode latencies for double precision floating points <ADD,MAX,MUL,MAD,DIV>Default 8,8,8,8,335
-ptx_opcode_initiation_int            1,2,2,1,8 # Opcode initiation intervals for integers <ADD,MAX,MUL,MAD,DIV>Default 1,1,4,4,32
-ptx_opcode_initiation_fp            1,2,1,1,4 # Opcode initiation intervals for single precision floating points <ADD,MAX,MUL,MAD,DIV>Default 1,1,1,1,5
-ptx_opcode_initiation_dp         8,16,8,8,130 # Opcode initiation intervals for double precision floating points <ADD,MAX,MUL,MAD,DIV>Default 8,8,8,8,130
DRAM Timing Options:
nbk                                    16 # number of banks
CCD                                     2 # column to column delay
RRD                                     6 # minimal delay between activation of rows in different banks
RCD                                    12 # row to column delay
RAS                                    28 # time needed to activate row
RP                                     12 # time needed to precharge (deactivate) row
RC                                     40 # row cycle time
CDLR                                    5 # switching from write to read (changes tWTR)
WR                                     12 # last data-in to row precharge
CL                                     12 # CAS latency
WL                                      4 # Write latency
nbkgrp                                  4 # number of bank groups
CCDL                                    3 # column to column delay between accesses to different bank groups
RTPL                                    2 # read to precharge delay between accesses to different bank groups
Total number of memory sub partition = 12
addr_dec_mask[CHIP]  = 0000000000000000 	high:64 low:0
addr_dec_mask[BK]    = 000000000000e100 	high:16 low:8
addr_dec_mask[ROW]   = 000000000fff0000 	high:28 low:16
addr_dec_mask[COL]   = 0000000000001eff 	high:13 low:0
addr_dec_mask[BURST] = 000000000000003f 	high:6 low:0
sub_partition_id_mask = 0000000000000100
GPGPU-Sim uArch: clock freqs: 700000000.000000:700000000.000000:700000000.000000:924000000.000000
GPGPU-Sim uArch: clock periods: 0.00000000142857142857:0.00000000142857142857:0.00000000142857142857:0.00000000108225108225
*** Initializing Memory Statistics ***
GPGPU-Sim uArch: interconnect node map (shaderID+MemID to icntID)
GPGPU-Sim uArch: Memory nodes ID start from index: 15
GPGPU-Sim uArch:    0   1   2   3   4
GPGPU-Sim uArch:    5   6   7   8   9
GPGPU-Sim uArch:   10  11  12  13  14
GPGPU-Sim uArch:   15  16  17  18  19
GPGPU-Sim uArch:   20  21  22  23  24
GPGPU-Sim uArch:   25  26
GPGPU-Sim uArch: interconnect node reverse map (icntID to shaderID+MemID)
GPGPU-Sim uArch: Memory nodes start from ID: 15
GPGPU-Sim uArch:    0   1   2   3   4
GPGPU-Sim uArch:    5   6   7   8   9
GPGPU-Sim uArch:   10  11  12  13  14
GPGPU-Sim uArch:   15  16  17  18  19
GPGPU-Sim uArch:   20  21  22  23  24
GPGPU-Sim uArch:   25  26
e389dacb331e7fcddf4abf4a164344f1  /sciclone/data20/adwait/applications/benchmarks/CUDA/BlackScholes/gpgpu_ptx_sim__BlackScholes
GPGPU-Sim uArch: performance model initialization complete.
GPGPU-Sim PTX: __cudaRegisterFatBinary, fat_cubin_handle = 1, filename=BlackScholes.cu
self exe links to: /sciclone/data20/adwait/applications/benchmarks/CUDA/BlackScholes/gpgpu_ptx_sim__BlackScholes
Running md5sum using "md5sum /sciclone/data20/adwait/applications/benchmarks/CUDA/BlackScholes/gpgpu_ptx_sim__BlackScholes "
Parsing file _cuobjdump_complete_output_K1Nywa
######### cuobjdump parser ########
## Adding new section ELF
Adding arch: sm_20
Adding identifier: BlackScholes.cu
## Adding new section PTX
Adding ptx filename: _cuobjdump_1.ptx
Adding arch: sm_20
Adding identifier: BlackScholes.cu
Done parsing!!!
GPGPU-Sim PTX: __cudaRegisterFunction _Z15BlackScholesGPUPfS_S_S_S_ffi : hostFun 0x0x405752, fat_cubin_handle = 1
GPGPU-Sim PTX: instruction assembly for function '_Z15BlackScholesGPUPfS_S_S_S_ffi'...   done.
GPGPU-Sim PTX: finding reconvergence points for '_Z15BlackScholesGPUPfS_S_S_S_ffi'...
GPGPU-Sim PTX: Finding dominators for '_Z15BlackScholesGPUPfS_S_S_S_ffi'...
GPGPU-Sim PTX: Finding immediate dominators for '_Z15BlackScholesGPUPfS_S_S_S_ffi'...
GPGPU-Sim PTX: Finding postdominators for '_Z15BlackScholesGPUPfS_S_S_S_ffi'...
GPGPU-Sim PTX: Finding immediate postdominators for '_Z15BlackScholesGPUPfS_S_S_S_ffi'...
GPGPU-Sim PTX: pre-decoding instructions for '_Z15BlackScholesGPUPfS_S_S_S_ffi'...
GPGPU-Sim PTX: reconvergence points for _Z15BlackScholesGPUPfS_S_S_S_ffi...
GPGPU-Sim PTX:  1 (potential) branch divergence @  PC=0x040 (_1.ptx:76) @%p1 bra $Lt_0_2818;
GPGPU-Sim PTX:    immediate post dominator      @  PC=0x3f8 (_1.ptx:200) exit;
GPGPU-Sim PTX:  2 (potential) branch divergence @  PC=0x3f0 (_1.ptx:197) @%p4 bra $Lt_0_3330;
GPGPU-Sim PTX:    immediate post dominator      @  PC=0x3f8 (_1.ptx:200) exit;
GPGPU-Sim PTX: ... end of reconvergence points for _Z15BlackScholesGPUPfS_S_S_S_ffi
GPGPU-Sim PTX: ... done pre-decoding instructions for '_Z15BlackScholesGPUPfS_S_S_S_ffi'.
GPGPU-Sim PTX: finished parsing EMBEDDED .ptx file _1.ptx
Adding _cuobjdump_1.ptx with cubin handle 1
GPGPU-Sim PTX: extracting embedded .ptx to temporary file "_ptx_ZsZcPY"
Running: cat _ptx_ZsZcPY | sed 's/.version 1.5/.version 1.4/' | sed 's/, texmode_independent//' | sed 's/\(\.extern \.const\[1\] .b8 \w\+\)\[\]/\1\[1\]/' | sed 's/const\[.\]/const\[0\]/g' > _ptx2_0gLNAN
GPGPU-Sim PTX: generating ptxinfo using "$CUDA_INSTALL_PATH/bin/ptxas --gpu-name=sm_20 -v _ptx2_0gLNAN --output-file  /dev/null 2> _ptx_ZsZcPYinfo"
GPGPU-Sim PTX: Kernel '_Z15BlackScholesGPUPfS_S_S_S_ffi' : regs=31, lmem=0, smem=0, cmem=128
GPGPU-Sim PTX: removing ptxinfo using "rm -f _ptx_ZsZcPY _ptx2_0gLNAN _ptx_ZsZcPYinfo"
GPGPU-Sim PTX: loading globals with explicit initializers... 
GPGPU-Sim PTX: finished loading globals (0 bytes total).
GPGPU-Sim PTX: loading constants with explicit initializers...  done.
Initializing data...
...allocating CPU memory for options.
...allocating GPU memory for options.
...generating input data in CPU mem.
...copying input data to GPU mem.
Data init done.
Executing Black-Scholes GPU kernel (1 iterations)...
GPGPU-Sim: synchronize waiting for inactive GPU simulation
GPGPU-Sim API: Stream Manager State
GPGPU-Sim: detected inactive GPU simulation thread

GPGPU-Sim PTX: cudaLaunch for 0x0x405752 (mode=performance simulation) on stream 0
GPGPU-Sim PTX: pushing kernel '_Z15BlackScholesGPUPfS_S_S_S_ffi' to stream 0, gridDim= (480,1,1) blockDim = (128,1,1) 
kernel '_Z15BlackScholesGPUPfS_S_S_S_ffi' transfer to GPU hardware scheduler
GPGPU-Sim uArch: Shader 1 bind to kernel 1 '_Z15BlackScholesGPUPfS_S_S_S_ffi'
GPGPU-Sim uArch: CTA/core = 8, limited by: regs cta_limit
GPGPU-Sim uArch: core:  1, cta: 0 initialized @(1,0)
GPGPU-Sim uArch: Shader 2 bind to kernel 1 '_Z15BlackScholesGPUPfS_S_S_S_ffi'
GPGPU-Sim uArch: core:  2, cta: 0 initialized @(1,0)
GPGPU-Sim uArch: Shader 3 bind to kernel 1 '_Z15BlackScholesGPUPfS_S_S_S_ffi'
GPGPU-Sim uArch: core:  3, cta: 0 initialized @(1,0)
GPGPU-Sim uArch: Shader 4 bind to kernel 1 '_Z15BlackScholesGPUPfS_S_S_S_ffi'
GPGPU-Sim uArch: core:  4, cta: 0 initialized @(1,0)
GPGPU-Sim uArch: Shader 5 bind to kernel 1 '_Z15BlackScholesGPUPfS_S_S_S_ffi'
GPGPU-Sim uArch: core:  5, cta: 0 initialized @(1,0)
GPGPU-Sim uArch: Shader 6 bind to kernel 1 '_Z15BlackScholesGPUPfS_S_S_S_ffi'
GPGPU-Sim uArch: core:  6, cta: 0 initialized @(1,0)
GPGPU-Sim uArch: Shader 7 bind to kernel 1 '_Z15BlackScholesGPUPfS_S_S_S_ffi'
GPGPU-Sim uArch: core:  7, cta: 0 initialized @(1,0)
GPGPU-Sim uArch: Shader 8 bind to kernel 1 '_Z15BlackScholesGPUPfS_S_S_S_ffi'
GPGPU-Sim uArch: core:  8, cta: 0 initialized @(1,0)
GPGPU-Sim uArch: Shader 9 bind to kernel 1 '_Z15BlackScholesGPUPfS_S_S_S_ffi'
GPGPU-Sim uArch: core:  9, cta: 0 initialized @(1,0)
GPGPU-Sim uArch: Shader 10 bind to kernel 1 '_Z15BlackScholesGPUPfS_S_S_S_ffi'
GPGPU-Sim uArch: core: 10, cta: 0 initialized @(1,0)
GPGPU-Sim uArch: Shader 11 bind to kernel 1 '_Z15BlackScholesGPUPfS_S_S_S_ffi'
GPGPU-Sim uArch: core: 11, cta: 0 initialized @(1,0)
GPGPU-Sim uArch: Shader 12 bind to kernel 1 '_Z15BlackScholesGPUPfS_S_S_S_ffi'
GPGPU-Sim uArch: core: 12, cta: 0 initialized @(1,0)
GPGPU-Sim uArch: Shader 13 bind to kernel 1 '_Z15BlackScholesGPUPfS_S_S_S_ffi'
GPGPU-Sim uArch: core: 13, cta: 0 initialized @(1,0)
GPGPU-Sim uArch: Shader 14 bind to kernel 1 '_Z15BlackScholesGPUPfS_S_S_S_ffi'
GPGPU-Sim uArch: core: 14, cta: 0 initialized @(1,0)
GPGPU-Sim uArch: Shader 0 bind to kernel 1 '_Z15BlackScholesGPUPfS_S_S_S_ffi'
GPGPU-Sim uArch: core:  0, cta: 0 initialized @(1,0)
GPGPU-Sim uArch: core:  1, cta: 1 initialized @(2,0)
GPGPU-Sim uArch: core:  2, cta: 1 initialized @(2,0)
GPGPU-Sim uArch: core:  3, cta: 1 initialized @(2,0)
GPGPU-Sim uArch: core:  4, cta: 1 initialized @(2,0)
GPGPU-Sim uArch: core:  5, cta: 1 initialized @(2,0)
GPGPU-Sim uArch: core:  6, cta: 1 initialized @(2,0)
GPGPU-Sim uArch: core:  7, cta: 1 initialized @(2,0)
GPGPU-Sim uArch: core:  8, cta: 1 initialized @(2,0)
GPGPU-Sim uArch: core:  9, cta: 1 initialized @(2,0)
GPGPU-Sim uArch: core: 10, cta: 1 initialized @(2,0)
GPGPU-Sim uArch: core: 11, cta: 1 initialized @(2,0)
GPGPU-Sim uArch: core: 12, cta: 1 initialized @(2,0)
GPGPU-Sim uArch: core: 13, cta: 1 initialized @(2,0)
GPGPU-Sim uArch: core: 14, cta: 1 initialized @(2,0)
GPGPU-Sim uArch: core:  0, cta: 1 initialized @(2,0)
GPGPU-Sim uArch: core:  1, cta: 2 initialized @(3,0)
GPGPU-Sim uArch: core:  2, cta: 2 initialized @(3,0)
GPGPU-Sim uArch: core:  3, cta: 2 initialized @(3,0)
GPGPU-Sim uArch: core:  4, cta: 2 initialized @(3,0)
GPGPU-Sim uArch: core:  5, cta: 2 initialized @(3,0)
GPGPU-Sim uArch: core:  6, cta: 2 initialized @(3,0)
GPGPU-Sim uArch: core:  7, cta: 2 initialized @(3,0)
GPGPU-Sim uArch: core:  8, cta: 2 initialized @(3,0)
GPGPU-Sim uArch: core:  9, cta: 2 initialized @(3,0)
GPGPU-Sim uArch: core: 10, cta: 2 initialized @(3,0)
GPGPU-Sim uArch: core: 11, cta: 2 initialized @(3,0)
GPGPU-Sim uArch: core: 12, cta: 2 initialized @(3,0)
GPGPU-Sim uArch: core: 13, cta: 2 initialized @(3,0)
GPGPU-Sim uArch: core: 14, cta: 2 initialized @(3,0)
GPGPU-Sim uArch: core:  0, cta: 2 initialized @(3,0)
GPGPU-Sim uArch: core:  1, cta: 3 initialized @(4,0)
GPGPU-Sim uArch: core:  2, cta: 3 initialized @(4,0)
GPGPU-Sim uArch: core:  3, cta: 3 initialized @(4,0)
GPGPU-Sim uArch: core:  4, cta: 3 initialized @(4,0)
GPGPU-Sim uArch: core:  5, cta: 3 initialized @(4,0)
GPGPU-Sim uArch: core:  6, cta: 3 initialized @(4,0)
GPGPU-Sim uArch: core:  7, cta: 3 initialized @(4,0)
GPGPU-Sim uArch: core:  8, cta: 3 initialized @(4,0)
GPGPU-Sim uArch: core:  9, cta: 3 initialized @(4,0)
GPGPU-Sim uArch: core: 10, cta: 3 initialized @(4,0)
GPGPU-Sim uArch: core: 11, cta: 3 initialized @(4,0)
GPGPU-Sim uArch: core: 12, cta: 3 initialized @(4,0)
GPGPU-Sim uArch: core: 13, cta: 3 initialized @(4,0)
GPGPU-Sim uArch: core: 14, cta: 3 initialized @(4,0)
GPGPU-Sim uArch: core:  0, cta: 3 initialized @(4,0)
GPGPU-Sim uArch: core:  1, cta: 4 initialized @(5,0)
GPGPU-Sim uArch: core:  2, cta: 4 initialized @(5,0)
GPGPU-Sim uArch: core:  3, cta: 4 initialized @(5,0)
GPGPU-Sim uArch: core:  4, cta: 4 initialized @(5,0)
GPGPU-Sim uArch: core:  5, cta: 4 initialized @(5,0)
GPGPU-Sim uArch: core:  6, cta: 4 initialized @(5,0)
GPGPU-Sim uArch: core:  7, cta: 4 initialized @(5,0)
GPGPU-Sim uArch: core:  8, cta: 4 initialized @(5,0)
GPGPU-Sim uArch: core:  9, cta: 4 initialized @(5,0)
GPGPU-Sim uArch: core: 10, cta: 4 initialized @(5,0)
GPGPU-Sim uArch: core: 11, cta: 4 initialized @(5,0)
GPGPU-Sim uArch: core: 12, cta: 4 initialized @(5,0)
GPGPU-Sim uArch: core: 13, cta: 4 initialized @(5,0)
GPGPU-Sim uArch: core: 14, cta: 4 initialized @(5,0)
GPGPU-Sim uArch: core:  0, cta: 4 initialized @(5,0)
GPGPU-Sim uArch: core:  1, cta: 5 initialized @(6,0)
GPGPU-Sim uArch: core:  2, cta: 5 initialized @(6,0)
GPGPU-Sim uArch: core:  3, cta: 5 initialized @(6,0)
GPGPU-Sim uArch: core:  4, cta: 5 initialized @(6,0)
GPGPU-Sim uArch: core:  5, cta: 5 initialized @(6,0)
GPGPU-Sim uArch: core:  6, cta: 5 initialized @(6,0)
GPGPU-Sim uArch: core:  7, cta: 5 initialized @(6,0)
GPGPU-Sim uArch: core:  8, cta: 5 initialized @(6,0)
GPGPU-Sim uArch: core:  9, cta: 5 initialized @(6,0)
GPGPU-Sim uArch: core: 10, cta: 5 initialized @(6,0)
GPGPU-Sim uArch: core: 11, cta: 5 initialized @(6,0)
GPGPU-Sim uArch: core: 12, cta: 5 initialized @(6,0)
GPGPU-Sim uArch: core: 13, cta: 5 initialized @(6,0)
GPGPU-Sim uArch: core: 14, cta: 5 initialized @(6,0)
GPGPU-Sim uArch: core:  0, cta: 5 initialized @(6,0)
GPGPU-Sim uArch: core:  1, cta: 6 initialized @(7,0)
GPGPU-Sim uArch: core:  2, cta: 6 initialized @(7,0)
GPGPU-Sim uArch: core:  3, cta: 6 initialized @(7,0)
GPGPU-Sim uArch: core:  4, cta: 6 initialized @(7,0)
GPGPU-Sim uArch: core:  5, cta: 6 initialized @(7,0)
GPGPU-Sim uArch: core:  6, cta: 6 initialized @(7,0)
GPGPU-Sim uArch: core:  7, cta: 6 initialized @(7,0)
GPGPU-Sim uArch: core:  8, cta: 6 initialized @(7,0)
GPGPU-Sim uArch: core:  9, cta: 6 initialized @(7,0)
GPGPU-Sim uArch: core: 10, cta: 6 initialized @(7,0)
GPGPU-Sim uArch: core: 11, cta: 6 initialized @(7,0)
GPGPU-Sim uArch: core: 12, cta: 6 initialized @(7,0)
GPGPU-Sim uArch: core: 13, cta: 6 initialized @(7,0)
GPGPU-Sim uArch: core: 14, cta: 6 initialized @(7,0)
GPGPU-Sim uArch: core:  0, cta: 6 initialized @(7,0)
GPGPU-Sim uArch: core:  1, cta: 7 initialized @(8,0)
GPGPU-Sim uArch: core:  2, cta: 7 initialized @(8,0)
GPGPU-Sim uArch: core:  3, cta: 7 initialized @(8,0)
GPGPU-Sim uArch: core:  4, cta: 7 initialized @(8,0)
GPGPU-Sim uArch: core:  5, cta: 7 initialized @(8,0)
GPGPU-Sim uArch: core:  6, cta: 7 initialized @(8,0)
GPGPU-Sim uArch: core:  7, cta: 7 initialized @(8,0)
GPGPU-Sim uArch: core:  8, cta: 7 initialized @(8,0)
GPGPU-Sim uArch: core:  9, cta: 7 initialized @(8,0)
GPGPU-Sim uArch: core: 10, cta: 7 initialized @(8,0)
GPGPU-Sim uArch: core: 11, cta: 7 initialized @(8,0)
GPGPU-Sim uArch: core: 12, cta: 7 initialized @(8,0)
GPGPU-Sim uArch: core: 13, cta: 7 initialized @(8,0)
GPGPU-Sim uArch: core: 14, cta: 7 initialized @(8,0)
GPGPU-Sim uArch: core:  0, cta: 7 initialized @(8,0)
GPGPU-Sim PTX: 100000 instructions simulated : ctaid=(27,0,0) tid=(95,0,0)
GPGPU-Sim uArch: cycles simulated: 500  inst.: 92160 (ipc=184.3) sim_rate=46080 (inst/sec) elapsed = 0:0:00:02 / Sun Feb 28 21:37:44 2016
GPGPU-Sim PTX: 200000 instructions simulated : ctaid=(94,0,0) tid=(95,0,0)
GPGPU-Sim PTX: 300000 instructions simulated : ctaid=(53,0,0) tid=(127,0,0)
GPGPU-Sim PTX: 400000 instructions simulated : ctaid=(70,0,0) tid=(127,0,0)
GPGPU-Sim uArch: cycles simulated: 2000  inst.: 457440 (ipc=228.7) sim_rate=152480 (inst/sec) elapsed = 0:0:00:03 / Sun Feb 28 21:37:45 2016
GPGPU-Sim PTX: 500000 instructions simulated : ctaid=(33,0,0) tid=(31,0,0)
GPGPU-Sim PTX: 600000 instructions simulated : ctaid=(63,0,0) tid=(95,0,0)
GPGPU-Sim PTX: 700000 instructions simulated : ctaid=(34,0,0) tid=(95,0,0)
GPGPU-Sim PTX: 800000 instructions simulated : ctaid=(93,0,0) tid=(31,0,0)
GPGPU-Sim PTX: 900000 instructions simulated : ctaid=(11,0,0) tid=(127,0,0)
GPGPU-Sim uArch: cycles simulated: 3000  inst.: 921536 (ipc=307.2) sim_rate=230384 (inst/sec) elapsed = 0:0:00:04 / Sun Feb 28 21:37:46 2016
GPGPU-Sim PTX: 1000000 instructions simulated : ctaid=(16,0,0) tid=(63,0,0)
GPGPU-Sim PTX: 1100000 instructions simulated : ctaid=(70,0,0) tid=(127,0,0)
GPGPU-Sim PTX: 1200000 instructions simulated : ctaid=(38,0,0) tid=(31,0,0)
GPGPU-Sim PTX: 1300000 instructions simulated : ctaid=(37,0,0) tid=(31,0,0)
GPGPU-Sim PTX: 1400000 instructions simulated : ctaid=(57,0,0) tid=(127,0,0)
GPGPU-Sim PTX: 1500000 instructions simulated : ctaid=(59,0,0) tid=(31,0,0)
GPGPU-Sim uArch: cycles simulated: 4000  inst.: 1546368 (ipc=386.6) sim_rate=309273 (inst/sec) elapsed = 0:0:00:05 / Sun Feb 28 21:37:47 2016
GPGPU-Sim PTX: 1600000 instructions simulated : ctaid=(52,0,0) tid=(95,0,0)
GPGPU-Sim PTX: 1700000 instructions simulated : ctaid=(105,0,0) tid=(127,0,0)
GPGPU-Sim PTX: 1800000 instructions simulated : ctaid=(97,0,0) tid=(63,0,0)
GPGPU-Sim uArch: cycles simulated: 5000  inst.: 1841248 (ipc=368.2) sim_rate=306874 (inst/sec) elapsed = 0:0:00:06 / Sun Feb 28 21:37:48 2016
GPGPU-Sim PTX: 1900000 instructions simulated : ctaid=(99,0,0) tid=(31,0,0)
GPGPU-Sim PTX: 2000000 instructions simulated : ctaid=(6,0,0) tid=(31,0,0)
GPGPU-Sim PTX: 2100000 instructions simulated : ctaid=(6,0,0) tid=(127,0,0)
GPGPU-Sim PTX: 2200000 instructions simulated : ctaid=(3,0,0) tid=(31,0,0)
GPGPU-Sim PTX: 2300000 instructions simulated : ctaid=(7,0,0) tid=(63,0,0)
GPGPU-Sim PTX: 2400000 instructions simulated : ctaid=(25,0,0) tid=(31,0,0)
GPGPU-Sim uArch: cycles simulated: 6000  inst.: 2394880 (ipc=399.1) sim_rate=342125 (inst/sec) elapsed = 0:0:00:07 / Sun Feb 28 21:37:49 2016
GPGPU-Sim PTX: 2500000 instructions simulated : ctaid=(18,0,0) tid=(63,0,0)
GPGPU-Sim PTX: 2600000 instructions simulated : ctaid=(39,0,0) tid=(127,0,0)
GPGPU-Sim PTX: 2700000 instructions simulated : ctaid=(18,0,0) tid=(127,0,0)
GPGPU-Sim PTX: 2800000 instructions simulated : ctaid=(70,0,0) tid=(95,0,0)
GPGPU-Sim PTX: 2900000 instructions simulated : ctaid=(17,0,0) tid=(127,0,0)
GPGPU-Sim PTX: 3000000 instructions simulated : ctaid=(71,0,0) tid=(63,0,0)
GPGPU-Sim PTX: 3100000 instructions simulated : ctaid=(96,0,0) tid=(95,0,0)
GPGPU-Sim uArch: cycles simulated: 7000  inst.: 3065824 (ipc=438.0) sim_rate=383228 (inst/sec) elapsed = 0:0:00:08 / Sun Feb 28 21:37:50 2016
GPGPU-Sim PTX: 3200000 instructions simulated : ctaid=(10,0,0) tid=(95,0,0)
GPGPU-Sim PTX: 3300000 instructions simulated : ctaid=(96,0,0) tid=(31,0,0)
GPGPU-Sim PTX: 3400000 instructions simulated : ctaid=(3,0,0) tid=(95,0,0)
GPGPU-Sim uArch: cycles simulated: 7500  inst.: 3374208 (ipc=449.9) sim_rate=374912 (inst/sec) elapsed = 0:0:00:09 / Sun Feb 28 21:37:51 2016
GPGPU-Sim PTX: 3500000 instructions simulated : ctaid=(113,0,0) tid=(63,0,0)
GPGPU-Sim PTX: 3600000 instructions simulated : ctaid=(31,0,0) tid=(95,0,0)
GPGPU-Sim PTX: 3700000 instructions simulated : ctaid=(14,0,0) tid=(127,0,0)
GPGPU-Sim PTX: 3800000 instructions simulated : ctaid=(81,0,0) tid=(31,0,0)
GPGPU-Sim PTX: 3900000 instructions simulated : ctaid=(58,0,0) tid=(31,0,0)
GPGPU-Sim uArch: cycles simulated: 8500  inst.: 3936320 (ipc=463.1) sim_rate=393632 (inst/sec) elapsed = 0:0:00:10 / Sun Feb 28 21:37:52 2016
GPGPU-Sim PTX: 4000000 instructions simulated : ctaid=(0,0,0) tid=(127,0,0)
GPGPU-Sim PTX: 4100000 instructions simulated : ctaid=(12,0,0) tid=(31,0,0)
GPGPU-Sim PTX: 4200000 instructions simulated : ctaid=(96,0,0) tid=(31,0,0)
GPGPU-Sim PTX: 4300000 instructions simulated : ctaid=(90,0,0) tid=(95,0,0)
GPGPU-Sim PTX: 4400000 instructions simulated : ctaid=(40,0,0) tid=(31,0,0)
GPGPU-Sim PTX: 4500000 instructions simulated : ctaid=(27,0,0) tid=(31,0,0)
GPGPU-Sim uArch: cycles simulated: 9500  inst.: 4467648 (ipc=470.3) sim_rate=406149 (inst/sec) elapsed = 0:0:00:11 / Sun Feb 28 21:37:53 2016
GPGPU-Sim PTX: 4600000 instructions simulated : ctaid=(26,0,0) tid=(31,0,0)
GPGPU-Sim PTX: 4700000 instructions simulated : ctaid=(55,0,0) tid=(31,0,0)
GPGPU-Sim PTX: 4800000 instructions simulated : ctaid=(59,0,0) tid=(31,0,0)
GPGPU-Sim PTX: 4900000 instructions simulated : ctaid=(54,0,0) tid=(31,0,0)
GPGPU-Sim PTX: 5000000 instructions simulated : ctaid=(80,0,0) tid=(31,0,0)
GPGPU-Sim uArch: cycles simulated: 10500  inst.: 5049568 (ipc=480.9) sim_rate=420797 (inst/sec) elapsed = 0:0:00:12 / Sun Feb 28 21:37:54 2016
GPGPU-Sim PTX: 5100000 instructions simulated : ctaid=(53,0,0) tid=(63,0,0)
GPGPU-Sim PTX: 5200000 instructions simulated : ctaid=(78,0,0) tid=(63,0,0)
GPGPU-Sim PTX: 5300000 instructions simulated : ctaid=(3,0,0) tid=(127,0,0)
GPGPU-Sim uArch: cycles simulated: 11000  inst.: 5346848 (ipc=486.1) sim_rate=411296 (inst/sec) elapsed = 0:0:00:13 / Sun Feb 28 21:37:55 2016
GPGPU-Sim PTX: 5400000 instructions simulated : ctaid=(56,0,0) tid=(63,0,0)
GPGPU-Sim PTX: 5500000 instructions simulated : ctaid=(9,0,0) tid=(95,0,0)
GPGPU-Sim PTX: 5600000 instructions simulated : ctaid=(3,0,0) tid=(31,0,0)
GPGPU-Sim PTX: 5700000 instructions simulated : ctaid=(60,0,0) tid=(95,0,0)
GPGPU-Sim PTX: 5800000 instructions simulated : ctaid=(54,0,0) tid=(95,0,0)
GPGPU-Sim PTX: 5900000 instructions simulated : ctaid=(51,0,0) tid=(95,0,0)
GPGPU-Sim uArch: cycles simulated: 12000  inst.: 5934304 (ipc=494.5) sim_rate=423878 (inst/sec) elapsed = 0:0:00:14 / Sun Feb 28 21:37:56 2016
GPGPU-Sim PTX: 6000000 instructions simulated : ctaid=(38,0,0) tid=(31,0,0)
GPGPU-Sim PTX: 6100000 instructions simulated : ctaid=(67,0,0) tid=(127,0,0)
GPGPU-Sim PTX: 6200000 instructions simulated : ctaid=(82,0,0) tid=(63,0,0)
GPGPU-Sim PTX: 6300000 instructions simulated : ctaid=(30,0,0) tid=(63,0,0)
GPGPU-Sim PTX: 6400000 instructions simulated : ctaid=(79,0,0) tid=(63,0,0)
GPGPU-Sim PTX: 6500000 instructions simulated : ctaid=(40,0,0) tid=(63,0,0)
GPGPU-Sim uArch: cycles simulated: 13000  inst.: 6527328 (ipc=502.1) sim_rate=435155 (inst/sec) elapsed = 0:0:00:15 / Sun Feb 28 21:37:57 2016
GPGPU-Sim PTX: 6600000 instructions simulated : ctaid=(40,0,0) tid=(31,0,0)
GPGPU-Sim PTX: 6700000 instructions simulated : ctaid=(87,0,0) tid=(31,0,0)
GPGPU-Sim PTX: 6800000 instructions simulated : ctaid=(41,0,0) tid=(31,0,0)
GPGPU-Sim uArch: cycles simulated: 13500  inst.: 6828096 (ipc=505.8) sim_rate=426756 (inst/sec) elapsed = 0:0:00:16 / Sun Feb 28 21:37:58 2016
GPGPU-Sim PTX: 6900000 instructions simulated : ctaid=(8,0,0) tid=(127,0,0)
GPGPU-Sim PTX: 7000000 instructions simulated : ctaid=(14,0,0) tid=(127,0,0)
GPGPU-Sim PTX: 7100000 instructions simulated : ctaid=(13,0,0) tid=(127,0,0)
GPGPU-Sim PTX: 7200000 instructions simulated : ctaid=(74,0,0) tid=(127,0,0)
GPGPU-Sim PTX: 7300000 instructions simulated : ctaid=(11,0,0) tid=(63,0,0)
GPGPU-Sim PTX: 7400000 instructions simulated : ctaid=(30,0,0) tid=(127,0,0)
GPGPU-Sim uArch: cycles simulated: 14500  inst.: 7445888 (ipc=513.5) sim_rate=437993 (inst/sec) elapsed = 0:0:00:17 / Sun Feb 28 21:37:59 2016
GPGPU-Sim PTX: 7500000 instructions simulated : ctaid=(70,0,0) tid=(127,0,0)
GPGPU-Sim PTX: 7600000 instructions simulated : ctaid=(37,0,0) tid=(95,0,0)
GPGPU-Sim PTX: 7700000 instructions simulated : ctaid=(74,0,0) tid=(31,0,0)
GPGPU-Sim PTX: 7800000 instructions simulated : ctaid=(1,0,0) tid=(95,0,0)
GPGPU-Sim PTX: 7900000 instructions simulated : ctaid=(91,0,0) tid=(31,0,0)
GPGPU-Sim PTX: 8000000 instructions simulated : ctaid=(26,0,0) tid=(31,0,0)
GPGPU-Sim uArch: cycles simulated: 15500  inst.: 8031552 (ipc=518.2) sim_rate=446197 (inst/sec) elapsed = 0:0:00:18 / Sun Feb 28 21:38:00 2016
GPGPU-Sim PTX: 8100000 instructions simulated : ctaid=(2,0,0) tid=(31,0,0)
GPGPU-Sim PTX: 8200000 instructions simulated : ctaid=(56,0,0) tid=(127,0,0)
GPGPU-Sim PTX: 8300000 instructions simulated : ctaid=(53,0,0) tid=(63,0,0)
GPGPU-Sim PTX: 8400000 instructions simulated : ctaid=(49,0,0) tid=(95,0,0)
GPGPU-Sim PTX: 8500000 instructions simulated : ctaid=(76,0,0) tid=(95,0,0)
GPGPU-Sim PTX: 8600000 instructions simulated : ctaid=(27,0,0) tid=(95,0,0)
GPGPU-Sim uArch: cycles simulated: 16500  inst.: 8647168 (ipc=524.1) sim_rate=455114 (inst/sec) elapsed = 0:0:00:19 / Sun Feb 28 21:38:01 2016
GPGPU-Sim PTX: 8700000 instructions simulated : ctaid=(25,0,0) tid=(31,0,0)
GPGPU-Sim PTX: 8800000 instructions simulated : ctaid=(5,0,0) tid=(127,0,0)
GPGPU-Sim PTX: 8900000 instructions simulated : ctaid=(31,0,0) tid=(63,0,0)
GPGPU-Sim uArch: cycles simulated: 17000  inst.: 8955872 (ipc=526.8) sim_rate=447793 (inst/sec) elapsed = 0:0:00:20 / Sun Feb 28 21:38:02 2016
GPGPU-Sim PTX: 9000000 instructions simulated : ctaid=(45,0,0) tid=(31,0,0)
GPGPU-Sim PTX: 9100000 instructions simulated : ctaid=(37,0,0) tid=(63,0,0)
GPGPU-Sim PTX: 9200000 instructions simulated : ctaid=(43,0,0) tid=(95,0,0)
GPGPU-Sim PTX: 9300000 instructions simulated : ctaid=(104,0,0) tid=(31,0,0)
GPGPU-Sim PTX: 9400000 instructions simulated : ctaid=(35,0,0) tid=(127,0,0)
GPGPU-Sim PTX: 9500000 instructions simulated : ctaid=(38,0,0) tid=(31,0,0)
GPGPU-Sim uArch: cycles simulated: 18000  inst.: 9545984 (ipc=530.3) sim_rate=454570 (inst/sec) elapsed = 0:0:00:21 / Sun Feb 28 21:38:03 2016
GPGPU-Sim PTX: 9600000 instructions simulated : ctaid=(48,0,0) tid=(95,0,0)
GPGPU-Sim PTX: 9700000 instructions simulated : ctaid=(114,0,0) tid=(31,0,0)
GPGPU-Sim PTX: 9800000 instructions simulated : ctaid=(11,0,0) tid=(127,0,0)
GPGPU-Sim PTX: 9900000 instructions simulated : ctaid=(36,0,0) tid=(127,0,0)
GPGPU-Sim PTX: 10000000 instructions simulated : ctaid=(9,0,0) tid=(63,0,0)
GPGPU-Sim PTX: 10100000 instructions simulated : ctaid=(15,0,0) tid=(63,0,0)
GPGPU-Sim uArch: cycles simulated: 19000  inst.: 10123584 (ipc=532.8) sim_rate=460162 (inst/sec) elapsed = 0:0:00:22 / Sun Feb 28 21:38:04 2016
GPGPU-Sim PTX: 10200000 instructions simulated : ctaid=(3,0,0) tid=(31,0,0)
GPGPU-Sim PTX: 10300000 instructions simulated : ctaid=(12,0,0) tid=(63,0,0)
GPGPU-Sim PTX: 10400000 instructions simulated : ctaid=(103,0,0) tid=(95,0,0)
GPGPU-Sim uArch: cycles simulated: 19500  inst.: 10422112 (ipc=534.5) sim_rate=453135 (inst/sec) elapsed = 0:0:00:23 / Sun Feb 28 21:38:05 2016
GPGPU-Sim PTX: 10500000 instructions simulated : ctaid=(23,0,0) tid=(63,0,0)
GPGPU-Sim PTX: 10600000 instructions simulated : ctaid=(64,0,0) tid=(31,0,0)
GPGPU-Sim PTX: 10700000 instructions simulated : ctaid=(39,0,0) tid=(63,0,0)
GPGPU-Sim PTX: 10800000 instructions simulated : ctaid=(29,0,0) tid=(95,0,0)
GPGPU-Sim PTX: 10900000 instructions simulated : ctaid=(1,0,0) tid=(31,0,0)
GPGPU-Sim PTX: 11000000 instructions simulated : ctaid=(32,0,0) tid=(95,0,0)
GPGPU-Sim uArch: cycles simulated: 20500  inst.: 11022400 (ipc=537.7) sim_rate=459266 (inst/sec) elapsed = 0:0:00:24 / Sun Feb 28 21:38:06 2016
GPGPU-Sim PTX: 11100000 instructions simulated : ctaid=(68,0,0) tid=(31,0,0)
GPGPU-Sim PTX: 11200000 instructions simulated : ctaid=(34,0,0) tid=(63,0,0)
GPGPU-Sim PTX: 11300000 instructions simulated : ctaid=(42,0,0) tid=(31,0,0)
GPGPU-Sim PTX: 11400000 instructions simulated : ctaid=(24,0,0) tid=(95,0,0)
GPGPU-Sim PTX: 11500000 instructions simulated : ctaid=(102,0,0) tid=(95,0,0)
GPGPU-Sim PTX: 11600000 instructions simulated : ctaid=(30,0,0) tid=(95,0,0)
GPGPU-Sim uArch: cycles simulated: 21500  inst.: 11596640 (ipc=539.4) sim_rate=463865 (inst/sec) elapsed = 0:0:00:25 / Sun Feb 28 21:38:07 2016
GPGPU-Sim PTX: 11700000 instructions simulated : ctaid=(97,0,0) tid=(95,0,0)
GPGPU-Sim PTX: 11800000 instructions simulated : ctaid=(52,0,0) tid=(63,0,0)
GPGPU-Sim PTX: 11900000 instructions simulated : ctaid=(51,0,0) tid=(95,0,0)
GPGPU-Sim PTX: 12000000 instructions simulated : ctaid=(101,0,0) tid=(95,0,0)
GPGPU-Sim PTX: 12100000 instructions simulated : ctaid=(45,0,0) tid=(31,0,0)
GPGPU-Sim PTX: 12200000 instructions simulated : ctaid=(53,0,0) tid=(127,0,0)
GPGPU-Sim uArch: cycles simulated: 22500  inst.: 12168256 (ipc=540.8) sim_rate=468009 (inst/sec) elapsed = 0:0:00:26 / Sun Feb 28 21:38:08 2016
GPGPU-Sim PTX: 12300000 instructions simulated : ctaid=(15,0,0) tid=(95,0,0)
GPGPU-Sim PTX: 12400000 instructions simulated : ctaid=(22,0,0) tid=(127,0,0)
GPGPU-Sim PTX: 12500000 instructions simulated : ctaid=(33,0,0) tid=(95,0,0)
GPGPU-Sim uArch: cycles simulated: 23000  inst.: 12466752 (ipc=542.0) sim_rate=461731 (inst/sec) elapsed = 0:0:00:27 / Sun Feb 28 21:38:09 2016
GPGPU-Sim PTX: 12600000 instructions simulated : ctaid=(8,0,0) tid=(31,0,0)
GPGPU-Sim PTX: 12700000 instructions simulated : ctaid=(67,0,0) tid=(31,0,0)
GPGPU-Sim PTX: 12800000 instructions simulated : ctaid=(106,0,0) tid=(31,0,0)
GPGPU-Sim PTX: 12900000 instructions simulated : ctaid=(67,0,0) tid=(95,0,0)
GPGPU-Sim PTX: 13000000 instructions simulated : ctaid=(0,0,0) tid=(95,0,0)
GPGPU-Sim uArch: cycles simulated: 24000  inst.: 13025536 (ipc=542.7) sim_rate=465197 (inst/sec) elapsed = 0:0:00:28 / Sun Feb 28 21:38:10 2016
GPGPU-Sim PTX: 13100000 instructions simulated : ctaid=(82,0,0) tid=(31,0,0)
GPGPU-Sim PTX: 13200000 instructions simulated : ctaid=(6,0,0) tid=(95,0,0)
GPGPU-Sim PTX: 13300000 instructions simulated : ctaid=(40,0,0) tid=(95,0,0)
GPGPU-Sim PTX: 13400000 instructions simulated : ctaid=(42,0,0) tid=(127,0,0)
GPGPU-Sim PTX: 13500000 instructions simulated : ctaid=(35,0,0) tid=(63,0,0)
GPGPU-Sim PTX: 13600000 instructions simulated : ctaid=(56,0,0) tid=(63,0,0)
GPGPU-Sim uArch: cycles simulated: 25000  inst.: 13620128 (ipc=544.8) sim_rate=469659 (inst/sec) elapsed = 0:0:00:29 / Sun Feb 28 21:38:11 2016
GPGPU-Sim PTX: 13700000 instructions simulated : ctaid=(24,0,0) tid=(127,0,0)
GPGPU-Sim PTX: 13800000 instructions simulated : ctaid=(2,0,0) tid=(31,0,0)
GPGPU-Sim PTX: 13900000 instructions simulated : ctaid=(70,0,0) tid=(63,0,0)
GPGPU-Sim uArch: cycles simulated: 25500  inst.: 13917440 (ipc=545.8) sim_rate=463914 (inst/sec) elapsed = 0:0:00:30 / Sun Feb 28 21:38:12 2016
GPGPU-Sim PTX: 14000000 instructions simulated : ctaid=(35,0,0) tid=(127,0,0)
GPGPU-Sim PTX: 14100000 instructions simulated : ctaid=(110,0,0) tid=(31,0,0)
GPGPU-Sim PTX: 14200000 instructions simulated : ctaid=(16,0,0) tid=(127,0,0)
GPGPU-Sim PTX: 14300000 instructions simulated : ctaid=(56,0,0) tid=(95,0,0)
GPGPU-Sim PTX: 14400000 instructions simulated : ctaid=(35,0,0) tid=(95,0,0)
GPGPU-Sim PTX: 14500000 instructions simulated : ctaid=(86,0,0) tid=(31,0,0)
GPGPU-Sim uArch: cycles simulated: 26500  inst.: 14498976 (ipc=547.1) sim_rate=467708 (inst/sec) elapsed = 0:0:00:31 / Sun Feb 28 21:38:13 2016
GPGPU-Sim PTX: 14600000 instructions simulated : ctaid=(31,0,0) tid=(127,0,0)
GPGPU-Sim PTX: 14700000 instructions simulated : ctaid=(55,0,0) tid=(63,0,0)
GPGPU-Sim PTX: 14800000 instructions simulated : ctaid=(64,0,0) tid=(31,0,0)
GPGPU-Sim PTX: 14900000 instructions simulated : ctaid=(70,0,0) tid=(31,0,0)
GPGPU-Sim PTX: 15000000 instructions simulated : ctaid=(12,0,0) tid=(63,0,0)
GPGPU-Sim uArch: cycles simulated: 27500  inst.: 15041376 (ipc=547.0) sim_rate=470043 (inst/sec) elapsed = 0:0:00:32 / Sun Feb 28 21:38:14 2016
GPGPU-Sim PTX: 15100000 instructions simulated : ctaid=(84,0,0) tid=(127,0,0)
GPGPU-Sim PTX: 15200000 instructions simulated : ctaid=(1,0,0) tid=(31,0,0)
GPGPU-Sim PTX: 15300000 instructions simulated : ctaid=(56,0,0) tid=(95,0,0)
GPGPU-Sim PTX: 15400000 instructions simulated : ctaid=(13,0,0) tid=(63,0,0)
GPGPU-Sim PTX: 15500000 instructions simulated : ctaid=(66,0,0) tid=(95,0,0)
GPGPU-Sim PTX: 15600000 instructions simulated : ctaid=(1,0,0) tid=(31,0,0)
GPGPU-Sim uArch: cycles simulated: 28500  inst.: 15630976 (ipc=548.5) sim_rate=473665 (inst/sec) elapsed = 0:0:00:33 / Sun Feb 28 21:38:15 2016
GPGPU-Sim PTX: 15700000 instructions simulated : ctaid=(36,0,0) tid=(127,0,0)
GPGPU-Sim PTX: 15800000 instructions simulated : ctaid=(92,0,0) tid=(95,0,0)
GPGPU-Sim PTX: 15900000 instructions simulated : ctaid=(50,0,0) tid=(95,0,0)
GPGPU-Sim uArch: cycles simulated: 29000  inst.: 15924960 (ipc=549.1) sim_rate=468381 (inst/sec) elapsed = 0:0:00:34 / Sun Feb 28 21:38:16 2016
GPGPU-Sim PTX: 16000000 instructions simulated : ctaid=(79,0,0) tid=(127,0,0)
GPGPU-Sim PTX: 16100000 instructions simulated : ctaid=(8,0,0) tid=(95,0,0)
GPGPU-Sim PTX: 16200000 instructions simulated : ctaid=(14,0,0) tid=(63,0,0)
GPGPU-Sim PTX: 16300000 instructions simulated : ctaid=(16,0,0) tid=(63,0,0)
GPGPU-Sim PTX: 16400000 instructions simulated : ctaid=(36,0,0) tid=(31,0,0)
GPGPU-Sim PTX: 16500000 instructions simulated : ctaid=(19,0,0) tid=(63,0,0)
GPGPU-Sim uArch: cycles simulated: 30000  inst.: 16493696 (ipc=549.8) sim_rate=471248 (inst/sec) elapsed = 0:0:00:35 / Sun Feb 28 21:38:17 2016
GPGPU-Sim PTX: 16600000 instructions simulated : ctaid=(46,0,0) tid=(31,0,0)
GPGPU-Sim PTX: 16700000 instructions simulated : ctaid=(41,0,0) tid=(63,0,0)
GPGPU-Sim PTX: 16800000 instructions simulated : ctaid=(56,0,0) tid=(31,0,0)
GPGPU-Sim PTX: 16900000 instructions simulated : ctaid=(21,0,0) tid=(127,0,0)
GPGPU-Sim PTX: 17000000 instructions simulated : ctaid=(42,0,0) tid=(63,0,0)
GPGPU-Sim uArch: cycles simulated: 31000  inst.: 17040192 (ipc=549.7) sim_rate=473338 (inst/sec) elapsed = 0:0:00:36 / Sun Feb 28 21:38:18 2016
GPGPU-Sim PTX: 17100000 instructions simulated : ctaid=(74,0,0) tid=(31,0,0)
GPGPU-Sim PTX: 17200000 instructions simulated : ctaid=(35,0,0) tid=(31,0,0)
GPGPU-Sim PTX: 17300000 instructions simulated : ctaid=(92,0,0) tid=(95,0,0)
GPGPU-Sim PTX: 17400000 instructions simulated : ctaid=(43,0,0) tid=(31,0,0)
GPGPU-Sim PTX: 17500000 instructions simulated : ctaid=(23,0,0) tid=(127,0,0)
GPGPU-Sim PTX: 17600000 instructions simulated : ctaid=(11,0,0) tid=(63,0,0)
GPGPU-Sim uArch: cycles simulated: 32000  inst.: 17617568 (ipc=550.5) sim_rate=476150 (inst/sec) elapsed = 0:0:00:37 / Sun Feb 28 21:38:19 2016
GPGPU-Sim PTX: 17700000 instructions simulated : ctaid=(11,0,0) tid=(127,0,0)
GPGPU-Sim PTX: 17800000 instructions simulated : ctaid=(65,0,0) tid=(127,0,0)
GPGPU-Sim PTX: 17900000 instructions simulated : ctaid=(51,0,0) tid=(31,0,0)
GPGPU-Sim uArch: cycles simulated: 32500  inst.: 17906016 (ipc=551.0) sim_rate=471210 (inst/sec) elapsed = 0:0:00:38 / Sun Feb 28 21:38:20 2016
GPGPU-Sim PTX: 18000000 instructions simulated : ctaid=(51,0,0) tid=(31,0,0)
GPGPU-Sim PTX: 18100000 instructions simulated : ctaid=(110,0,0) tid=(127,0,0)
GPGPU-Sim PTX: 18200000 instructions simulated : ctaid=(46,0,0) tid=(127,0,0)
GPGPU-Sim PTX: 18300000 instructions simulated : ctaid=(6,0,0) tid=(127,0,0)
GPGPU-Sim PTX: 18400000 instructions simulated : ctaid=(56,0,0) tid=(95,0,0)
GPGPU-Sim PTX: 18500000 instructions simulated : ctaid=(33,0,0) tid=(31,0,0)
GPGPU-Sim uArch: cycles simulated: 33500  inst.: 18476320 (ipc=551.5) sim_rate=473751 (inst/sec) elapsed = 0:0:00:39 / Sun Feb 28 21:38:21 2016
GPGPU-Sim PTX: 18600000 instructions simulated : ctaid=(79,0,0) tid=(31,0,0)
GPGPU-Sim PTX: 18700000 instructions simulated : ctaid=(46,0,0) tid=(63,0,0)
GPGPU-Sim PTX: 18800000 instructions simulated : ctaid=(62,0,0) tid=(127,0,0)
GPGPU-Sim PTX: 18900000 instructions simulated : ctaid=(25,0,0) tid=(127,0,0)
GPGPU-Sim PTX: 19000000 instructions simulated : ctaid=(68,0,0) tid=(31,0,0)
GPGPU-Sim PTX: 19100000 instructions simulated : ctaid=(37,0,0) tid=(95,0,0)
GPGPU-Sim uArch: cycles simulated: 34500  inst.: 19071040 (ipc=552.8) sim_rate=476776 (inst/sec) elapsed = 0:0:00:40 / Sun Feb 28 21:38:22 2016
GPGPU-Sim PTX: 19200000 instructions simulated : ctaid=(75,0,0) tid=(63,0,0)
GPGPU-Sim PTX: 19300000 instructions simulated : ctaid=(66,0,0) tid=(63,0,0)
GPGPU-Sim PTX: 19400000 instructions simulated : ctaid=(20,0,0) tid=(95,0,0)
GPGPU-Sim PTX: 19500000 instructions simulated : ctaid=(98,0,0) tid=(63,0,0)
GPGPU-Sim PTX: 19600000 instructions simulated : ctaid=(99,0,0) tid=(95,0,0)
GPGPU-Sim uArch: cycles simulated: 35500  inst.: 19652096 (ipc=553.6) sim_rate=479319 (inst/sec) elapsed = 0:0:00:41 / Sun Feb 28 21:38:23 2016
GPGPU-Sim PTX: 19700000 instructions simulated : ctaid=(1,0,0) tid=(31,0,0)
GPGPU-Sim PTX: 19800000 instructions simulated : ctaid=(21,0,0) tid=(127,0,0)
GPGPU-Sim PTX: 19900000 instructions simulated : ctaid=(101,0,0) tid=(95,0,0)
GPGPU-Sim uArch: cycles simulated: 36000  inst.: 19942912 (ipc=554.0) sim_rate=474831 (inst/sec) elapsed = 0:0:00:42 / Sun Feb 28 21:38:24 2016
GPGPU-Sim PTX: 20000000 instructions simulated : ctaid=(56,0,0) tid=(31,0,0)
GPGPU-Sim PTX: 20100000 instructions simulated : ctaid=(101,0,0) tid=(31,0,0)
GPGPU-Sim PTX: 20200000 instructions simulated : ctaid=(31,0,0) tid=(95,0,0)
GPGPU-Sim PTX: 20300000 instructions simulated : ctaid=(76,0,0) tid=(95,0,0)
GPGPU-Sim PTX: 20400000 instructions simulated : ctaid=(104,0,0) tid=(63,0,0)
GPGPU-Sim PTX: 20500000 instructions simulated : ctaid=(32,0,0) tid=(95,0,0)
GPGPU-Sim uArch: cycles simulated: 37000  inst.: 20508992 (ipc=554.3) sim_rate=476953 (inst/sec) elapsed = 0:0:00:43 / Sun Feb 28 21:38:25 2016
GPGPU-Sim PTX: 20600000 instructions simulated : ctaid=(34,0,0) tid=(95,0,0)
GPGPU-Sim PTX: 20700000 instructions simulated : ctaid=(84,0,0) tid=(95,0,0)
GPGPU-Sim PTX: 20800000 instructions simulated : ctaid=(47,0,0) tid=(63,0,0)
GPGPU-Sim PTX: 20900000 instructions simulated : ctaid=(59,0,0) tid=(95,0,0)
GPGPU-Sim PTX: 21000000 instructions simulated : ctaid=(46,0,0) tid=(63,0,0)
GPGPU-Sim PTX: 21100000 instructions simulated : ctaid=(64,0,0) tid=(95,0,0)
GPGPU-Sim uArch: cycles simulated: 38000  inst.: 21093792 (ipc=555.1) sim_rate=479404 (inst/sec) elapsed = 0:0:00:44 / Sun Feb 28 21:38:26 2016
GPGPU-Sim PTX: 21200000 instructions simulated : ctaid=(92,0,0) tid=(127,0,0)
GPGPU-Sim PTX: 21300000 instructions simulated : ctaid=(6,0,0) tid=(63,0,0)
GPGPU-Sim PTX: 21400000 instructions simulated : ctaid=(32,0,0) tid=(127,0,0)
GPGPU-Sim PTX: 21500000 instructions simulated : ctaid=(87,0,0) tid=(95,0,0)
GPGPU-Sim PTX: 21600000 instructions simulated : ctaid=(47,0,0) tid=(31,0,0)
GPGPU-Sim uArch: cycles simulated: 39000  inst.: 21662144 (ipc=555.4) sim_rate=481380 (inst/sec) elapsed = 0:0:00:45 / Sun Feb 28 21:38:27 2016
GPGPU-Sim PTX: 21700000 instructions simulated : ctaid=(37,0,0) tid=(95,0,0)
GPGPU-Sim PTX: 21800000 instructions simulated : ctaid=(97,0,0) tid=(31,0,0)
GPGPU-Sim PTX: 21900000 instructions simulated : ctaid=(84,0,0) tid=(31,0,0)
GPGPU-Sim PTX: 22000000 instructions simulated : ctaid=(68,0,0) tid=(63,0,0)
GPGPU-Sim uArch: cycles simulated: 39500  inst.: 21962208 (ipc=556.0) sim_rate=477439 (inst/sec) elapsed = 0:0:00:46 / Sun Feb 28 21:38:28 2016
GPGPU-Sim PTX: 22100000 instructions simulated : ctaid=(101,0,0) tid=(95,0,0)
GPGPU-Sim PTX: 22200000 instructions simulated : ctaid=(24,0,0) tid=(95,0,0)
GPGPU-Sim PTX: 22300000 instructions simulated : ctaid=(41,0,0) tid=(63,0,0)
GPGPU-Sim PTX: 22400000 instructions simulated : ctaid=(58,0,0) tid=(31,0,0)
GPGPU-Sim PTX: 22500000 instructions simulated : ctaid=(38,0,0) tid=(95,0,0)
GPGPU-Sim uArch: cycles simulated: 40500  inst.: 22548416 (ipc=556.8) sim_rate=479753 (inst/sec) elapsed = 0:0:00:47 / Sun Feb 28 21:38:29 2016
GPGPU-Sim PTX: 22600000 instructions simulated : ctaid=(98,0,0) tid=(63,0,0)
GPGPU-Sim PTX: 22700000 instructions simulated : ctaid=(42,0,0) tid=(63,0,0)
GPGPU-Sim PTX: 22800000 instructions simulated : ctaid=(99,0,0) tid=(31,0,0)
GPGPU-Sim PTX: 22900000 instructions simulated : ctaid=(42,0,0) tid=(63,0,0)
GPGPU-Sim PTX: 23000000 instructions simulated : ctaid=(91,0,0) tid=(63,0,0)
GPGPU-Sim PTX: 23100000 instructions simulated : ctaid=(87,0,0) tid=(31,0,0)
GPGPU-Sim uArch: cycles simulated: 41500  inst.: 23123264 (ipc=557.2) sim_rate=481734 (inst/sec) elapsed = 0:0:00:48 / Sun Feb 28 21:38:30 2016
GPGPU-Sim PTX: 23200000 instructions simulated : ctaid=(111,0,0) tid=(95,0,0)
GPGPU-Sim PTX: 23300000 instructions simulated : ctaid=(14,0,0) tid=(95,0,0)
GPGPU-Sim PTX: 23400000 instructions simulated : ctaid=(64,0,0) tid=(31,0,0)
GPGPU-Sim uArch: cycles simulated: 42000  inst.: 23426016 (ipc=557.8) sim_rate=478081 (inst/sec) elapsed = 0:0:00:49 / Sun Feb 28 21:38:31 2016
GPGPU-Sim PTX: 23500000 instructions simulated : ctaid=(93,0,0) tid=(63,0,0)
GPGPU-Sim PTX: 23600000 instructions simulated : ctaid=(36,0,0) tid=(127,0,0)
GPGPU-Sim PTX: 23700000 instructions simulated : ctaid=(50,0,0) tid=(127,0,0)
GPGPU-Sim PTX: 23800000 instructions simulated : ctaid=(109,0,0) tid=(95,0,0)
GPGPU-Sim PTX: 23900000 instructions simulated : ctaid=(28,0,0) tid=(95,0,0)
GPGPU-Sim PTX: 24000000 instructions simulated : ctaid=(18,0,0) tid=(95,0,0)
GPGPU-Sim uArch: cycles simulated: 43000  inst.: 24017344 (ipc=558.5) sim_rate=480346 (inst/sec) elapsed = 0:0:00:50 / Sun Feb 28 21:38:32 2016
GPGPU-Sim PTX: 24100000 instructions simulated : ctaid=(24,0,0) tid=(95,0,0)
GPGPU-Sim PTX: 24200000 instructions simulated : ctaid=(55,0,0) tid=(31,0,0)
GPGPU-Sim PTX: 24300000 instructions simulated : ctaid=(96,0,0) tid=(127,0,0)
GPGPU-Sim PTX: 24400000 instructions simulated : ctaid=(72,0,0) tid=(31,0,0)
GPGPU-Sim PTX: 24500000 instructions simulated : ctaid=(78,0,0) tid=(31,0,0)
GPGPU-Sim PTX: 24600000 instructions simulated : ctaid=(45,0,0) tid=(95,0,0)
GPGPU-Sim uArch: cycles simulated: 44000  inst.: 24594048 (ipc=559.0) sim_rate=482236 (inst/sec) elapsed = 0:0:00:51 / Sun Feb 28 21:38:33 2016
GPGPU-Sim PTX: 24700000 instructions simulated : ctaid=(4,0,0) tid=(63,0,0)
GPGPU-Sim PTX: 24800000 instructions simulated : ctaid=(99,0,0) tid=(127,0,0)
GPGPU-Sim PTX: 24900000 instructions simulated : ctaid=(0,0,0) tid=(127,0,0)
GPGPU-Sim PTX: 25000000 instructions simulated : ctaid=(23,0,0) tid=(63,0,0)
GPGPU-Sim PTX: 25100000 instructions simulated : ctaid=(103,0,0) tid=(95,0,0)
GPGPU-Sim uArch: cycles simulated: 45000  inst.: 25160896 (ipc=559.1) sim_rate=483863 (inst/sec) elapsed = 0:0:00:52 / Sun Feb 28 21:38:34 2016
GPGPU-Sim PTX: 25200000 instructions simulated : ctaid=(60,0,0) tid=(31,0,0)
GPGPU-Sim PTX: 25300000 instructions simulated : ctaid=(33,0,0) tid=(127,0,0)
GPGPU-Sim PTX: 25400000 instructions simulated : ctaid=(71,0,0) tid=(63,0,0)
GPGPU-Sim uArch: cycles simulated: 45500  inst.: 25441952 (ipc=559.2) sim_rate=480036 (inst/sec) elapsed = 0:0:00:53 / Sun Feb 28 21:38:35 2016
GPGPU-Sim PTX: 25500000 instructions simulated : ctaid=(10,0,0) tid=(127,0,0)
GPGPU-Sim PTX: 25600000 instructions simulated : ctaid=(21,0,0) tid=(127,0,0)
GPGPU-Sim PTX: 25700000 instructions simulated : ctaid=(25,0,0) tid=(31,0,0)
GPGPU-Sim PTX: 25800000 instructions simulated : ctaid=(69,0,0) tid=(31,0,0)
GPGPU-Sim PTX: 25900000 instructions simulated : ctaid=(89,0,0) tid=(31,0,0)
GPGPU-Sim PTX: 26000000 instructions simulated : ctaid=(50,0,0) tid=(63,0,0)
GPGPU-Sim uArch: cycles simulated: 46500  inst.: 26032896 (ipc=559.8) sim_rate=482090 (inst/sec) elapsed = 0:0:00:54 / Sun Feb 28 21:38:36 2016
GPGPU-Sim PTX: 26100000 instructions simulated : ctaid=(63,0,0) tid=(63,0,0)
GPGPU-Sim PTX: 26200000 instructions simulated : ctaid=(18,0,0) tid=(31,0,0)
GPGPU-Sim PTX: 26300000 instructions simulated : ctaid=(33,0,0) tid=(95,0,0)
GPGPU-Sim PTX: 26400000 instructions simulated : ctaid=(1,0,0) tid=(63,0,0)
GPGPU-Sim PTX: 26500000 instructions simulated : ctaid=(9,0,0) tid=(63,0,0)
GPGPU-Sim PTX: 26600000 instructions simulated : ctaid=(20,0,0) tid=(127,0,0)
GPGPU-Sim uArch: cycles simulated: 47500  inst.: 26633792 (ipc=560.7) sim_rate=484250 (inst/sec) elapsed = 0:0:00:55 / Sun Feb 28 21:38:37 2016
GPGPU-Sim PTX: 26700000 instructions simulated : ctaid=(94,0,0) tid=(95,0,0)
GPGPU-Sim PTX: 26800000 instructions simulated : ctaid=(20,0,0) tid=(63,0,0)
GPGPU-Sim PTX: 26900000 instructions simulated : ctaid=(47,0,0) tid=(31,0,0)
GPGPU-Sim PTX: 27000000 instructions simulated : ctaid=(90,0,0) tid=(63,0,0)
GPGPU-Sim PTX: 27100000 instructions simulated : ctaid=(80,0,0) tid=(31,0,0)
GPGPU-Sim PTX: 27200000 instructions simulated : ctaid=(73,0,0) tid=(95,0,0)
GPGPU-Sim uArch: cycles simulated: 48500  inst.: 27218944 (ipc=561.2) sim_rate=486052 (inst/sec) elapsed = 0:0:00:56 / Sun Feb 28 21:38:38 2016
GPGPU-Sim PTX: 27300000 instructions simulated : ctaid=(25,0,0) tid=(95,0,0)
GPGPU-Sim PTX: 27400000 instructions simulated : ctaid=(6,0,0) tid=(63,0,0)
GPGPU-Sim PTX: 27500000 instructions simulated : ctaid=(6,0,0) tid=(63,0,0)
GPGPU-Sim uArch: cycles simulated: 49000  inst.: 27502560 (ipc=561.3) sim_rate=482501 (inst/sec) elapsed = 0:0:00:57 / Sun Feb 28 21:38:39 2016
GPGPU-Sim PTX: 27600000 instructions simulated : ctaid=(61,0,0) tid=(31,0,0)
GPGPU-Sim PTX: 27700000 instructions simulated : ctaid=(13,0,0) tid=(127,0,0)
GPGPU-Sim PTX: 27800000 instructions simulated : ctaid=(48,0,0) tid=(63,0,0)
GPGPU-Sim PTX: 27900000 instructions simulated : ctaid=(12,0,0) tid=(95,0,0)
GPGPU-Sim PTX: 28000000 instructions simulated : ctaid=(27,0,0) tid=(127,0,0)
GPGPU-Sim PTX: 28100000 instructions simulated : ctaid=(51,0,0) tid=(127,0,0)
GPGPU-Sim uArch: cycles simulated: 50000  inst.: 28074336 (ipc=561.5) sim_rate=484040 (inst/sec) elapsed = 0:0:00:58 / Sun Feb 28 21:38:40 2016
GPGPU-Sim PTX: 28200000 instructions simulated : ctaid=(95,0,0) tid=(31,0,0)
GPGPU-Sim PTX: 28300000 instructions simulated : ctaid=(8,0,0) tid=(95,0,0)
GPGPU-Sim PTX: 28400000 instructions simulated : ctaid=(68,0,0) tid=(95,0,0)
GPGPU-Sim PTX: 28500000 instructions simulated : ctaid=(9,0,0) tid=(127,0,0)
GPGPU-Sim PTX: 28600000 instructions simulated : ctaid=(20,0,0) tid=(31,0,0)
GPGPU-Sim uArch: cycles simulated: 51000  inst.: 28654976 (ipc=561.9) sim_rate=485677 (inst/sec) elapsed = 0:0:00:59 / Sun Feb 28 21:38:41 2016
GPGPU-Sim PTX: 28700000 instructions simulated : ctaid=(3,0,0) tid=(63,0,0)
GPGPU-Sim PTX: 28800000 instructions simulated : ctaid=(13,0,0) tid=(31,0,0)
GPGPU-Sim PTX: 28900000 instructions simulated : ctaid=(23,0,0) tid=(127,0,0)
GPGPU-Sim uArch: cycles simulated: 51500  inst.: 28956992 (ipc=562.3) sim_rate=482616 (inst/sec) elapsed = 0:0:01:00 / Sun Feb 28 21:38:42 2016
GPGPU-Sim PTX: 29000000 instructions simulated : ctaid=(49,0,0) tid=(31,0,0)
GPGPU-Sim PTX: 29100000 instructions simulated : ctaid=(83,0,0) tid=(95,0,0)
GPGPU-Sim PTX: 29200000 instructions simulated : ctaid=(42,0,0) tid=(95,0,0)
GPGPU-Sim PTX: 29300000 instructions simulated : ctaid=(77,0,0) tid=(95,0,0)
GPGPU-Sim PTX: 29400000 instructions simulated : ctaid=(39,0,0) tid=(95,0,0)
GPGPU-Sim PTX: 29500000 instructions simulated : ctaid=(12,0,0) tid=(127,0,0)
GPGPU-Sim uArch: cycles simulated: 52500  inst.: 29516928 (ipc=562.2) sim_rate=483884 (inst/sec) elapsed = 0:0:01:01 / Sun Feb 28 21:38:43 2016
GPGPU-Sim PTX: 29600000 instructions simulated : ctaid=(90,0,0) tid=(127,0,0)
GPGPU-Sim PTX: 29700000 instructions simulated : ctaid=(36,0,0) tid=(127,0,0)
GPGPU-Sim PTX: 29800000 instructions simulated : ctaid=(83,0,0) tid=(95,0,0)
GPGPU-Sim PTX: 29900000 instructions simulated : ctaid=(57,0,0) tid=(31,0,0)
GPGPU-Sim PTX: 30000000 instructions simulated : ctaid=(14,0,0) tid=(127,0,0)
GPGPU-Sim PTX: 30100000 instructions simulated : ctaid=(17,0,0) tid=(31,0,0)
GPGPU-Sim uArch: cycles simulated: 53500  inst.: 30103456 (ipc=562.7) sim_rate=485539 (inst/sec) elapsed = 0:0:01:02 / Sun Feb 28 21:38:44 2016
GPGPU-Sim PTX: 30200000 instructions simulated : ctaid=(71,0,0) tid=(63,0,0)
GPGPU-Sim PTX: 30300000 instructions simulated : ctaid=(21,0,0) tid=(31,0,0)
GPGPU-Sim PTX: 30400000 instructions simulated : ctaid=(75,0,0) tid=(95,0,0)
GPGPU-Sim PTX: 30500000 instructions simulated : ctaid=(0,0,0) tid=(95,0,0)
GPGPU-Sim PTX: 30600000 instructions simulated : ctaid=(86,0,0) tid=(31,0,0)
GPGPU-Sim PTX: 30700000 instructions simulated : ctaid=(39,0,0) tid=(95,0,0)
GPGPU-Sim uArch: cycles simulated: 54500  inst.: 30666240 (ipc=562.7) sim_rate=486765 (inst/sec) elapsed = 0:0:01:03 / Sun Feb 28 21:38:45 2016
GPGPU-Sim PTX: 30800000 instructions simulated : ctaid=(51,0,0) tid=(31,0,0)
GPGPU-Sim PTX: 30900000 instructions simulated : ctaid=(5,0,0) tid=(31,0,0)
GPGPU-Sim uArch: cycles simulated: 55000  inst.: 30956160 (ipc=562.8) sim_rate=483690 (inst/sec) elapsed = 0:0:01:04 / Sun Feb 28 21:38:46 2016
GPGPU-Sim PTX: 31000000 instructions simulated : ctaid=(69,0,0) tid=(31,0,0)
GPGPU-Sim PTX: 31100000 instructions simulated : ctaid=(70,0,0) tid=(95,0,0)
GPGPU-Sim PTX: 31200000 instructions simulated : ctaid=(111,0,0) tid=(31,0,0)
GPGPU-Sim PTX: 31300000 instructions simulated : ctaid=(16,0,0) tid=(127,0,0)
GPGPU-Sim PTX: 31400000 instructions simulated : ctaid=(50,0,0) tid=(127,0,0)
GPGPU-Sim PTX: 31500000 instructions simulated : ctaid=(34,0,0) tid=(31,0,0)
GPGPU-Sim uArch: cycles simulated: 56000  inst.: 31538048 (ipc=563.2) sim_rate=485200 (inst/sec) elapsed = 0:0:01:05 / Sun Feb 28 21:38:47 2016
GPGPU-Sim PTX: 31600000 instructions simulated : ctaid=(99,0,0) tid=(95,0,0)
GPGPU-Sim PTX: 31700000 instructions simulated : ctaid=(48,0,0) tid=(63,0,0)
GPGPU-Sim PTX: 31800000 instructions simulated : ctaid=(25,0,0) tid=(127,0,0)
GPGPU-Sim PTX: 31900000 instructions simulated : ctaid=(87,0,0) tid=(31,0,0)
GPGPU-Sim PTX: 32000000 instructions simulated : ctaid=(57,0,0) tid=(31,0,0)
GPGPU-Sim PTX: 32100000 instructions simulated : ctaid=(38,0,0) tid=(127,0,0)
GPGPU-Sim uArch: cycles simulated: 57000  inst.: 32126560 (ipc=563.6) sim_rate=486766 (inst/sec) elapsed = 0:0:01:06 / Sun Feb 28 21:38:48 2016
GPGPU-Sim PTX: 32200000 instructions simulated : ctaid=(67,0,0) tid=(63,0,0)
GPGPU-Sim PTX: 32300000 instructions simulated : ctaid=(80,0,0) tid=(31,0,0)
GPGPU-Sim PTX: 32400000 instructions simulated : ctaid=(58,0,0) tid=(63,0,0)
GPGPU-Sim PTX: 32500000 instructions simulated : ctaid=(69,0,0) tid=(95,0,0)
GPGPU-Sim PTX: 32600000 instructions simulated : ctaid=(26,0,0) tid=(95,0,0)
GPGPU-Sim PTX: 32700000 instructions simulated : ctaid=(53,0,0) tid=(95,0,0)
GPGPU-Sim uArch: cycles simulated: 58000  inst.: 32710752 (ipc=564.0) sim_rate=488220 (inst/sec) elapsed = 0:0:01:07 / Sun Feb 28 21:38:49 2016
GPGPU-Sim PTX: 32800000 instructions simulated : ctaid=(82,0,0) tid=(31,0,0)
GPGPU-Sim PTX: 32900000 instructions simulated : ctaid=(38,0,0) tid=(95,0,0)
GPGPU-Sim PTX: 33000000 instructions simulated : ctaid=(25,0,0) tid=(127,0,0)
GPGPU-Sim uArch: cycles simulated: 58500  inst.: 32990816 (ipc=563.9) sim_rate=485159 (inst/sec) elapsed = 0:0:01:08 / Sun Feb 28 21:38:50 2016
GPGPU-Sim PTX: 33100000 instructions simulated : ctaid=(3,0,0) tid=(63,0,0)
GPGPU-Sim PTX: 33200000 instructions simulated : ctaid=(90,0,0) tid=(31,0,0)
GPGPU-Sim PTX: 33300000 instructions simulated : ctaid=(72,0,0) tid=(95,0,0)
GPGPU-Sim PTX: 33400000 instructions simulated : ctaid=(60,0,0) tid=(95,0,0)
GPGPU-Sim PTX: 33500000 instructions simulated : ctaid=(60,0,0) tid=(95,0,0)
GPGPU-Sim uArch: cycles simulated: 59500  inst.: 33499616 (ipc=563.0) sim_rate=485501 (inst/sec) elapsed = 0:0:01:09 / Sun Feb 28 21:38:51 2016
GPGPU-Sim PTX: 33600000 instructions simulated : ctaid=(2,0,0) tid=(127,0,0)
GPGPU-Sim PTX: 33700000 instructions simulated : ctaid=(44,0,0) tid=(63,0,0)
GPGPU-Sim PTX: 33800000 instructions simulated : ctaid=(33,0,0) tid=(31,0,0)
GPGPU-Sim PTX: 33900000 instructions simulated : ctaid=(72,0,0) tid=(63,0,0)
GPGPU-Sim PTX: 34000000 instructions simulated : ctaid=(2,0,0) tid=(31,0,0)
GPGPU-Sim uArch: cycles simulated: 60500  inst.: 34036096 (ipc=562.6) sim_rate=486229 (inst/sec) elapsed = 0:0:01:10 / Sun Feb 28 21:38:52 2016
GPGPU-Sim PTX: 34100000 instructions simulated : ctaid=(0,0,0) tid=(63,0,0)
GPGPU-Sim PTX: 34200000 instructions simulated : ctaid=(79,0,0) tid=(31,0,0)
GPGPU-Sim PTX: 34300000 instructions simulated : ctaid=(105,0,0) tid=(95,0,0)
GPGPU-Sim PTX: 34400000 instructions simulated : ctaid=(15,0,0) tid=(63,0,0)
GPGPU-Sim PTX: 34500000 instructions simulated : ctaid=(100,0,0) tid=(127,0,0)
GPGPU-Sim uArch: cycles simulated: 61500  inst.: 34551712 (ipc=561.8) sim_rate=486643 (inst/sec) elapsed = 0:0:01:11 / Sun Feb 28 21:38:53 2016
GPGPU-Sim PTX: 34600000 instructions simulated : ctaid=(18,0,0) tid=(31,0,0)
GPGPU-Sim PTX: 34700000 instructions simulated : ctaid=(50,0,0) tid=(127,0,0)
GPGPU-Sim PTX: 34800000 instructions simulated : ctaid=(31,0,0) tid=(127,0,0)
GPGPU-Sim PTX: 34900000 instructions simulated : ctaid=(27,0,0) tid=(127,0,0)
GPGPU-Sim PTX: 35000000 instructions simulated : ctaid=(45,0,0) tid=(95,0,0)
GPGPU-Sim PTX: 35100000 instructions simulated : ctaid=(84,0,0) tid=(31,0,0)
GPGPU-Sim uArch: cycles simulated: 62500  inst.: 35099840 (ipc=561.6) sim_rate=487497 (inst/sec) elapsed = 0:0:01:12 / Sun Feb 28 21:38:54 2016
GPGPU-Sim PTX: 35200000 instructions simulated : ctaid=(93,0,0) tid=(127,0,0)
GPGPU-Sim PTX: 35300000 instructions simulated : ctaid=(97,0,0) tid=(31,0,0)
GPGPU-Sim PTX: 35400000 instructions simulated : ctaid=(64,0,0) tid=(127,0,0)
GPGPU-Sim PTX: 35500000 instructions simulated : ctaid=(71,0,0) tid=(95,0,0)
GPGPU-Sim PTX: 35600000 instructions simulated : ctaid=(25,0,0) tid=(63,0,0)
GPGPU-Sim uArch: cycles simulated: 63500  inst.: 35650336 (ipc=561.4) sim_rate=488360 (inst/sec) elapsed = 0:0:01:13 / Sun Feb 28 21:38:55 2016
GPGPU-Sim PTX: 35700000 instructions simulated : ctaid=(95,0,0) tid=(95,0,0)
GPGPU-Sim PTX: 35800000 instructions simulated : ctaid=(79,0,0) tid=(31,0,0)
GPGPU-Sim PTX: 35900000 instructions simulated : ctaid=(17,0,0) tid=(31,0,0)
GPGPU-Sim uArch: cycles simulated: 64000  inst.: 35910624 (ipc=561.1) sim_rate=485278 (inst/sec) elapsed = 0:0:01:14 / Sun Feb 28 21:38:56 2016
GPGPU-Sim PTX: 36000000 instructions simulated : ctaid=(8,0,0) tid=(63,0,0)
GPGPU-Sim uArch: Shader 5 finished CTA #0 (64219,0), 7 CTAs running
GPGPU-Sim uArch: core:  5, cta: 0 initialized @(64220,0)
GPGPU-Sim PTX: 36100000 instructions simulated : ctaid=(54,0,0) tid=(31,0,0)
GPGPU-Sim PTX: 36200000 instructions simulated : ctaid=(52,0,0) tid=(31,0,0)
GPGPU-Sim uArch: Shader 10 finished CTA #0 (64654,0), 7 CTAs running
GPGPU-Sim uArch: core: 10, cta: 0 initialized @(64655,0)
GPGPU-Sim PTX: 36300000 instructions simulated : ctaid=(51,0,0) tid=(95,0,0)
GPGPU-Sim PTX: 36400000 instructions simulated : ctaid=(34,0,0) tid=(63,0,0)
GPGPU-Sim uArch: cycles simulated: 65000  inst.: 36411264 (ipc=560.2) sim_rate=485483 (inst/sec) elapsed = 0:0:01:15 / Sun Feb 28 21:38:57 2016
GPGPU-Sim PTX: 36500000 instructions simulated : ctaid=(98,0,0) tid=(31,0,0)
GPGPU-Sim PTX: 36600000 instructions simulated : ctaid=(37,0,0) tid=(31,0,0)
GPGPU-Sim PTX: 36700000 instructions simulated : ctaid=(66,0,0) tid=(95,0,0)
GPGPU-Sim uArch: Shader 7 finished CTA #0 (65625,0), 7 CTAs running
GPGPU-Sim uArch: core:  7, cta: 0 initialized @(65626,0)
GPGPU-Sim uArch: Shader 9 finished CTA #0 (65693,0), 7 CTAs running
GPGPU-Sim uArch: core:  9, cta: 0 initialized @(65694,0)
GPGPU-Sim PTX: 36800000 instructions simulated : ctaid=(83,0,0) tid=(31,0,0)
GPGPU-Sim PTX: 36900000 instructions simulated : ctaid=(59,0,0) tid=(95,0,0)
GPGPU-Sim uArch: Shader 3 finished CTA #0 (65921,0), 7 CTAs running
GPGPU-Sim uArch: core:  3, cta: 0 initialized @(65922,0)
GPGPU-Sim uArch: Shader 4 finished CTA #0 (65985,0), 7 CTAs running
GPGPU-Sim uArch: core:  4, cta: 0 initialized @(65986,0)
GPGPU-Sim uArch: cycles simulated: 66000  inst.: 36902112 (ipc=559.1) sim_rate=485554 (inst/sec) elapsed = 0:0:01:16 / Sun Feb 28 21:38:58 2016
GPGPU-Sim PTX: 37000000 instructions simulated : ctaid=(108,0,0) tid=(63,0,0)
GPGPU-Sim uArch: Shader 7 finished CTA #1 (66099,0), 7 CTAs running
GPGPU-Sim uArch: core:  7, cta: 1 initialized @(66100,0)
GPGPU-Sim uArch: Shader 1 finished CTA #0 (66197,0), 7 CTAs running
GPGPU-Sim uArch: core:  1, cta: 0 initialized @(66198,0)
GPGPU-Sim uArch: Shader 12 finished CTA #1 (66235,0), 7 CTAs running
GPGPU-Sim uArch: core: 12, cta: 1 initialized @(66236,0)
GPGPU-Sim PTX: 37100000 instructions simulated : ctaid=(60,0,0) tid=(127,0,0)
GPGPU-Sim uArch: Shader 4 finished CTA #1 (66311,0), 7 CTAs running
GPGPU-Sim uArch: core:  4, cta: 1 initialized @(66312,0)
GPGPU-Sim uArch: Shader 0 finished CTA #0 (66328,0), 7 CTAs running
GPGPU-Sim uArch: core:  0, cta: 0 initialized @(66329,0)
GPGPU-Sim uArch: Shader 12 finished CTA #0 (66368,0), 7 CTAs running
GPGPU-Sim uArch: core: 12, cta: 0 initialized @(66369,0)
GPGPU-Sim PTX: 37200000 instructions simulated : ctaid=(7,0,0) tid=(63,0,0)
GPGPU-Sim uArch: Shader 1 finished CTA #1 (66642,0), 7 CTAs running
GPGPU-Sim uArch: core:  1, cta: 1 initialized @(66643,0)
GPGPU-Sim PTX: 37300000 instructions simulated : ctaid=(86,0,0) tid=(63,0,0)
GPGPU-Sim uArch: Shader 11 finished CTA #0 (66702,0), 7 CTAs running
GPGPU-Sim uArch: core: 11, cta: 0 initialized @(66703,0)
GPGPU-Sim uArch: Shader 0 finished CTA #1 (66828,0), 7 CTAs running
GPGPU-Sim uArch: core:  0, cta: 1 initialized @(66829,0)
GPGPU-Sim PTX: 37400000 instructions simulated : ctaid=(76,0,0) tid=(95,0,0)
GPGPU-Sim uArch: Shader 6 finished CTA #0 (66935,0), 7 CTAs running
GPGPU-Sim uArch: core:  6, cta: 0 initialized @(66936,0)
GPGPU-Sim PTX: 37500000 instructions simulated : ctaid=(125,0,0) tid=(63,0,0)
GPGPU-Sim uArch: cycles simulated: 67000  inst.: 37457792 (ipc=559.1) sim_rate=486464 (inst/sec) elapsed = 0:0:01:17 / Sun Feb 28 21:38:59 2016
GPGPU-Sim PTX: 37600000 instructions simulated : ctaid=(115,0,0) tid=(127,0,0)
GPGPU-Sim uArch: Shader 6 finished CTA #1 (67289,0), 7 CTAs running
GPGPU-Sim uArch: core:  6, cta: 1 initialized @(67290,0)
GPGPU-Sim uArch: Shader 8 finished CTA #0 (67335,0), 7 CTAs running
GPGPU-Sim uArch: core:  8, cta: 0 initialized @(67336,0)
GPGPU-Sim PTX: 37700000 instructions simulated : ctaid=(115,0,0) tid=(63,0,0)
GPGPU-Sim PTX: 37800000 instructions simulated : ctaid=(61,0,0) tid=(127,0,0)
GPGPU-Sim uArch: Shader 9 finished CTA #2 (67683,0), 7 CTAs running
GPGPU-Sim uArch: core:  9, cta: 2 initialized @(67684,0)
GPGPU-Sim PTX: 37900000 instructions simulated : ctaid=(67,0,0) tid=(31,0,0)
GPGPU-Sim uArch: Shader 14 finished CTA #0 (67846,0), 7 CTAs running
GPGPU-Sim uArch: core: 14, cta: 0 initialized @(67847,0)
GPGPU-Sim PTX: 38000000 instructions simulated : ctaid=(77,0,0) tid=(31,0,0)
GPGPU-Sim uArch: cycles simulated: 68000  inst.: 38039168 (ipc=559.4) sim_rate=487681 (inst/sec) elapsed = 0:0:01:18 / Sun Feb 28 21:39:00 2016
GPGPU-Sim uArch: Shader 13 finished CTA #0 (68000,0), 7 CTAs running
GPGPU-Sim uArch: core: 13, cta: 0 initialized @(68001,0)
GPGPU-Sim PTX: 38100000 instructions simulated : ctaid=(124,0,0) tid=(127,0,0)
GPGPU-Sim uArch: Shader 2 finished CTA #0 (68173,0), 7 CTAs running
GPGPU-Sim uArch: core:  2, cta: 0 initialized @(68174,0)
GPGPU-Sim PTX: 38200000 instructions simulated : ctaid=(69,0,0) tid=(63,0,0)
GPGPU-Sim uArch: Shader 12 finished CTA #2 (68290,0), 7 CTAs running
GPGPU-Sim uArch: core: 12, cta: 2 initialized @(68291,0)
GPGPU-Sim PTX: 38300000 instructions simulated : ctaid=(52,0,0) tid=(127,0,0)
GPGPU-Sim PTX: 38400000 instructions simulated : ctaid=(102,0,0) tid=(63,0,0)
GPGPU-Sim uArch: Shader 14 finished CTA #1 (68527,0), 7 CTAs running
GPGPU-Sim uArch: core: 14, cta: 1 initialized @(68528,0)
GPGPU-Sim PTX: 38500000 instructions simulated : ctaid=(60,0,0) tid=(31,0,0)
GPGPU-Sim uArch: Shader 10 finished CTA #1 (68795,0), 7 CTAs running
GPGPU-Sim uArch: core: 10, cta: 1 initialized @(68796,0)
GPGPU-Sim PTX: 38600000 instructions simulated : ctaid=(74,0,0) tid=(127,0,0)
GPGPU-Sim uArch: Shader 9 finished CTA #1 (68869,0), 7 CTAs running
GPGPU-Sim uArch: core:  9, cta: 1 initialized @(68870,0)
GPGPU-Sim PTX: 38700000 instructions simulated : ctaid=(90,0,0) tid=(63,0,0)
GPGPU-Sim uArch: cycles simulated: 69000  inst.: 38658752 (ipc=560.3) sim_rate=489351 (inst/sec) elapsed = 0:0:01:19 / Sun Feb 28 21:39:01 2016
GPGPU-Sim uArch: Shader 8 finished CTA #1 (69065,0), 7 CTAs running
GPGPU-Sim uArch: core:  8, cta: 1 initialized @(69066,0)
GPGPU-Sim PTX: 38800000 instructions simulated : ctaid=(83,0,0) tid=(63,0,0)
GPGPU-Sim uArch: Shader 13 finished CTA #1 (69183,0), 7 CTAs running
GPGPU-Sim uArch: core: 13, cta: 1 initialized @(69184,0)
GPGPU-Sim uArch: Shader 6 finished CTA #2 (69225,0), 7 CTAs running
GPGPU-Sim uArch: core:  6, cta: 2 initialized @(69226,0)
GPGPU-Sim uArch: Shader 3 finished CTA #1 (69238,0), 7 CTAs running
GPGPU-Sim uArch: core:  3, cta: 1 initialized @(69239,0)
GPGPU-Sim uArch: Shader 5 finished CTA #1 (69255,0), 7 CTAs running
GPGPU-Sim uArch: core:  5, cta: 1 initialized @(69256,0)
GPGPU-Sim PTX: 38900000 instructions simulated : ctaid=(122,0,0) tid=(95,0,0)
GPGPU-Sim PTX: 39000000 instructions simulated : ctaid=(42,0,0) tid=(63,0,0)
GPGPU-Sim uArch: cycles simulated: 69500  inst.: 38977088 (ipc=560.8) sim_rate=487213 (inst/sec) elapsed = 0:0:01:20 / Sun Feb 28 21:39:02 2016
GPGPU-Sim PTX: 39100000 instructions simulated : ctaid=(77,0,0) tid=(127,0,0)
GPGPU-Sim uArch: Shader 3 finished CTA #2 (69629,0), 7 CTAs running
GPGPU-Sim uArch: core:  3, cta: 2 initialized @(69630,0)
GPGPU-Sim PTX: 39200000 instructions simulated : ctaid=(111,0,0) tid=(63,0,0)
GPGPU-Sim PTX: 39300000 instructions simulated : ctaid=(86,0,0) tid=(95,0,0)
GPGPU-Sim PTX: 39400000 instructions simulated : ctaid=(88,0,0) tid=(95,0,0)
GPGPU-Sim uArch: Shader 10 finished CTA #2 (70142,0), 7 CTAs running
GPGPU-Sim uArch: core: 10, cta: 2 initialized @(70143,0)
GPGPU-Sim PTX: 39500000 instructions simulated : ctaid=(82,0,0) tid=(31,0,0)
GPGPU-Sim uArch: Shader 1 finished CTA #2 (70386,0), 7 CTAs running
GPGPU-Sim uArch: core:  1, cta: 2 initialized @(70387,0)
GPGPU-Sim PTX: 39600000 instructions simulated : ctaid=(88,0,0) tid=(63,0,0)
GPGPU-Sim uArch: Shader 13 finished CTA #2 (70469,0), 7 CTAs running
GPGPU-Sim uArch: core: 13, cta: 2 initialized @(70470,0)
GPGPU-Sim uArch: Shader 4 finished CTA #2 (70478,0), 7 CTAs running
GPGPU-Sim uArch: core:  4, cta: 2 initialized @(70479,0)
GPGPU-Sim uArch: cycles simulated: 70500  inst.: 39577760 (ipc=561.4) sim_rate=488614 (inst/sec) elapsed = 0:0:01:21 / Sun Feb 28 21:39:03 2016
GPGPU-Sim uArch: Shader 14 finished CTA #2 (70601,0), 7 CTAs running
GPGPU-Sim uArch: core: 14, cta: 2 initialized @(70602,0)
GPGPU-Sim PTX: 39700000 instructions simulated : ctaid=(117,0,0) tid=(63,0,0)
GPGPU-Sim uArch: Shader 8 finished CTA #2 (70677,0), 7 CTAs running
GPGPU-Sim uArch: core:  8, cta: 2 initialized @(70678,0)
GPGPU-Sim PTX: 39800000 instructions simulated : ctaid=(124,0,0) tid=(63,0,0)
GPGPU-Sim PTX: 39900000 instructions simulated : ctaid=(80,0,0) tid=(63,0,0)
GPGPU-Sim uArch: Shader 11 finished CTA #1 (71007,0), 7 CTAs running
GPGPU-Sim uArch: core: 11, cta: 1 initialized @(71008,0)
GPGPU-Sim PTX: 40000000 instructions simulated : ctaid=(95,0,0) tid=(95,0,0)
GPGPU-Sim uArch: Shader 11 finished CTA #2 (71237,0), 7 CTAs running
GPGPU-Sim uArch: core: 11, cta: 2 initialized @(71238,0)
GPGPU-Sim PTX: 40100000 instructions simulated : ctaid=(61,0,0) tid=(63,0,0)
GPGPU-Sim uArch: Shader 2 finished CTA #2 (71410,0), 7 CTAs running
GPGPU-Sim uArch: core:  2, cta: 2 initialized @(71411,0)
GPGPU-Sim PTX: 40200000 instructions simulated : ctaid=(94,0,0) tid=(63,0,0)
GPGPU-Sim uArch: Shader 0 finished CTA #2 (71480,0), 7 CTAs running
GPGPU-Sim uArch: core:  0, cta: 2 initialized @(71481,0)
GPGPU-Sim uArch: cycles simulated: 71500  inst.: 40170944 (ipc=561.8) sim_rate=489889 (inst/sec) elapsed = 0:0:01:22 / Sun Feb 28 21:39:04 2016
GPGPU-Sim uArch: Shader 2 finished CTA #1 (71548,0), 7 CTAs running
GPGPU-Sim uArch: core:  2, cta: 1 initialized @(71549,0)
GPGPU-Sim uArch: Shader 12 finished CTA #3 (71606,0), 7 CTAs running
GPGPU-Sim uArch: core: 12, cta: 3 initialized @(71607,0)
GPGPU-Sim PTX: 40300000 instructions simulated : ctaid=(61,0,0) tid=(127,0,0)
GPGPU-Sim PTX: 40400000 instructions simulated : ctaid=(151,0,0) tid=(31,0,0)
GPGPU-Sim PTX: 40500000 instructions simulated : ctaid=(95,0,0) tid=(63,0,0)
GPGPU-Sim uArch: Shader 5 finished CTA #2 (71985,0), 7 CTAs running
GPGPU-Sim uArch: core:  5, cta: 2 initialized @(71986,0)
GPGPU-Sim PTX: 40600000 instructions simulated : ctaid=(50,0,0) tid=(127,0,0)
GPGPU-Sim PTX: 40700000 instructions simulated : ctaid=(110,0,0) tid=(31,0,0)
GPGPU-Sim PTX: 40800000 instructions simulated : ctaid=(75,0,0) tid=(127,0,0)
GPGPU-Sim uArch: cycles simulated: 72500  inst.: 40797696 (ipc=562.7) sim_rate=491538 (inst/sec) elapsed = 0:0:01:23 / Sun Feb 28 21:39:05 2016
GPGPU-Sim PTX: 40900000 instructions simulated : ctaid=(122,0,0) tid=(63,0,0)
GPGPU-Sim PTX: 41000000 instructions simulated : ctaid=(118,0,0) tid=(95,0,0)
GPGPU-Sim PTX: 41100000 instructions simulated : ctaid=(65,0,0) tid=(63,0,0)
GPGPU-Sim uArch: cycles simulated: 73000  inst.: 41076864 (ipc=562.7) sim_rate=489010 (inst/sec) elapsed = 0:0:01:24 / Sun Feb 28 21:39:06 2016
GPGPU-Sim PTX: 41200000 instructions simulated : ctaid=(131,0,0) tid=(127,0,0)
GPGPU-Sim PTX: 41300000 instructions simulated : ctaid=(129,0,0) tid=(95,0,0)
GPGPU-Sim PTX: 41400000 instructions simulated : ctaid=(150,0,0) tid=(31,0,0)
GPGPU-Sim PTX: 41500000 instructions simulated : ctaid=(89,0,0) tid=(63,0,0)
GPGPU-Sim PTX: 41600000 instructions simulated : ctaid=(103,0,0) tid=(95,0,0)
GPGPU-Sim uArch: Shader 7 finished CTA #2 (73855,0), 7 CTAs running
GPGPU-Sim uArch: core:  7, cta: 2 initialized @(73856,0)
GPGPU-Sim PTX: 41700000 instructions simulated : ctaid=(91,0,0) tid=(31,0,0)
GPGPU-Sim uArch: cycles simulated: 74000  inst.: 41676672 (ipc=563.2) sim_rate=490313 (inst/sec) elapsed = 0:0:01:25 / Sun Feb 28 21:39:07 2016
GPGPU-Sim PTX: 41800000 instructions simulated : ctaid=(158,0,0) tid=(127,0,0)
GPGPU-Sim PTX: 41900000 instructions simulated : ctaid=(130,0,0) tid=(63,0,0)
GPGPU-Sim PTX: 42000000 instructions simulated : ctaid=(142,0,0) tid=(31,0,0)
GPGPU-Sim PTX: 42100000 instructions simulated : ctaid=(101,0,0) tid=(63,0,0)
GPGPU-Sim PTX: 42200000 instructions simulated : ctaid=(126,0,0) tid=(63,0,0)
GPGPU-Sim PTX: 42300000 instructions simulated : ctaid=(58,0,0) tid=(127,0,0)
GPGPU-Sim uArch: cycles simulated: 75000  inst.: 42290208 (ipc=563.9) sim_rate=491746 (inst/sec) elapsed = 0:0:01:26 / Sun Feb 28 21:39:08 2016
GPGPU-Sim PTX: 42400000 instructions simulated : ctaid=(67,0,0) tid=(127,0,0)
GPGPU-Sim uArch: Shader 3 finished CTA #3 (75148,0), 7 CTAs running
GPGPU-Sim uArch: core:  3, cta: 3 initialized @(75149,0)
GPGPU-Sim uArch: Shader 9 finished CTA #3 (75216,0), 7 CTAs running
GPGPU-Sim uArch: core:  9, cta: 3 initialized @(75217,0)
GPGPU-Sim PTX: 42500000 instructions simulated : ctaid=(57,0,0) tid=(127,0,0)
GPGPU-Sim PTX: 42600000 instructions simulated : ctaid=(131,0,0) tid=(31,0,0)
GPGPU-Sim uArch: cycles simulated: 75500  inst.: 42608576 (ipc=564.4) sim_rate=489753 (inst/sec) elapsed = 0:0:01:27 / Sun Feb 28 21:39:09 2016
GPGPU-Sim PTX: 42700000 instructions simulated : ctaid=(94,0,0) tid=(95,0,0)
GPGPU-Sim PTX: 42800000 instructions simulated : ctaid=(111,0,0) tid=(127,0,0)
GPGPU-Sim uArch: Shader 6 finished CTA #3 (75816,0), 7 CTAs running
GPGPU-Sim uArch: core:  6, cta: 3 initialized @(75817,0)
GPGPU-Sim uArch: Shader 0 finished CTA #3 (75861,0), 7 CTAs running
GPGPU-Sim uArch: core:  0, cta: 3 initialized @(75862,0)
GPGPU-Sim PTX: 42900000 instructions simulated : ctaid=(66,0,0) tid=(127,0,0)
GPGPU-Sim PTX: 43000000 instructions simulated : ctaid=(125,0,0) tid=(31,0,0)
GPGPU-Sim PTX: 43100000 instructions simulated : ctaid=(92,0,0) tid=(31,0,0)
GPGPU-Sim uArch: Shader 10 finished CTA #3 (76335,0), 7 CTAs running
GPGPU-Sim uArch: core: 10, cta: 3 initialized @(76336,0)
GPGPU-Sim PTX: 43200000 instructions simulated : ctaid=(111,0,0) tid=(63,0,0)
GPGPU-Sim uArch: cycles simulated: 76500  inst.: 43212768 (ipc=564.9) sim_rate=491054 (inst/sec) elapsed = 0:0:01:28 / Sun Feb 28 21:39:10 2016
GPGPU-Sim PTX: 43300000 instructions simulated : ctaid=(137,0,0) tid=(127,0,0)
GPGPU-Sim PTX: 43400000 instructions simulated : ctaid=(89,0,0) tid=(31,0,0)
GPGPU-Sim PTX: 43500000 instructions simulated : ctaid=(76,0,0) tid=(63,0,0)
GPGPU-Sim PTX: 43600000 instructions simulated : ctaid=(141,0,0) tid=(127,0,0)
GPGPU-Sim PTX: 43700000 instructions simulated : ctaid=(120,0,0) tid=(95,0,0)
GPGPU-Sim PTX: 43800000 instructions simulated : ctaid=(113,0,0) tid=(31,0,0)
[...]
max_icnt2sh_latency = 346890 
mrq_lat_table:122523 	3859 	6063 	13967 	43846 	70309 	93928 	66319 	16008 	682 	5 	0 	0 	0 	0 	0 	0 	0 	0 	0 	0 	0 	0 	0 	0 	0 	0 	0 	0 	0 	0 	0 	
dq_lat_table:0 	0 	0 	0 	0 	0 	0 	0 	0 	0 	0 	0 	0 	0 	0 	0 	0 	0 	0 	0 	0 	0 	0 	0 	0 	0 	0 	0 	0 	0 	0 	0 	
mf_lat_table:0 	0 	0 	0 	0 	0 	0 	121 	47299 	249508 	15587 	0 	0 	0 	0 	0 	0 	0 	0 	0 	0 	0 	0 	0 	0 	0 	0 	0 	0 	0 	0 	0 	
icnt2mem_lat_table:0 	0 	0 	21467 	10852 	22846 	74599 	88269 	90612 	3990 	0 	0 	0 	0 	0 	0 	0 	0 	0 	0 	0 	0 	0 	0 	
icnt2sh_lat_table:0 	0 	0 	130917 	54505 	2087 	6 	0 	0 	0 	0 	101 	1464 	3151 	6127 	12065 	24652 	49264 	28176 	0 	0 	0 	0 	0 	
mf_lat_pw_table:0 	0 	0 	0 	0 	0 	0 	0 	53 	637 	0 	0 	0 	0 	0 	0 	0 	0 	0 	0 	0 	0 	0 	0 	0 	0 	0 	0 	0 	0 	0 	0 	
maximum concurrent accesses to same row:
dram[0]:        31        31        22        20        24        20        36        36        26        20        30        32        32        30        24        22 
dram[1]:        31        31        14        14        22        20        32        34        18        16        28        32        32        30        14        12 
dram[2]:        30        31        26        22        28        24        38        32        16        12        34        30        32        30        30        20 
dram[3]:        29        30        14        20        20        24        32        32        20        20        34        30        32        30        28        18 
dram[4]:        30        30        24        28        20        24        34        32        26        28        30        26        30        30        24        20 
dram[5]:        31        29        14        20        28        24        32        32        16        22        30        26        30        30        28        16 
maximum service time to same row:
dram[0]:      3224      3202      4729      3786      3835      2428      2453      2496      6566      5087      2566      2568      3037      3267      6425      4552 
dram[1]:      2271      3241      4238      3993      3841      2430      2456      2502      5918      4815      2423      2581      2994      3160      6370      4574 
dram[2]:      3127      3373      4294      3946      2461      2454      3104      2548      4773      5025      2562      2559      3076      2966      4818      4731 
dram[3]:      3154      3392      3888      4691      2553      4771      3186      2550      4505      5080      2573      2560      3244      2978      4857      4761 
dram[4]:      3284      3202      4394      4250      3715      3212      2687      2490      5242      4398      2509      2576      2965      2816      4532      4918 
dram[5]:      3338      3175      3896      3606      2887      2638      2480      2459      5149      4456      2590      2510      3098      3077      4835      4842 
average row accesses per activate:
dram[0]:  1.575894  1.593530  1.561246  1.582048  1.583508  1.557924  1.606742  1.616961  1.557522  1.566587  1.585586  1.603926  1.589441  1.601680  1.588337  1.571968 
dram[1]:  1.574453  1.552587  1.543620  1.533129  1.553119  1.552055  1.591099  1.580111  1.549611  1.542299  1.576300  1.559646  1.574131  1.559646  1.549611  1.556992 
dram[2]:  1.585460  1.577994  1.565036  1.561786  1.584062  1.577191  1.610134  1.603926  1.562308  1.567660  1.590546  1.582843  1.586135  1.588889  1.580656  1.578475 
dram[3]:  1.551300  1.556853  1.530010  1.523810  1.552055  1.556623  1.574131  1.581203  1.530947  1.537118  1.566051  1.573049  1.554348  1.557522  1.550661  1.567123 
dram[4]:  1.584761  1.569796  1.577071  1.545735  1.573065  1.571181  1.608436  1.611268  1.568735  1.542819  1.610134  1.567123  1.594425  1.573049  1.577931  1.576300 
dram[5]:  1.552740  1.555251  1.533651  1.541510  1.548872  1.553957  1.576300  1.569811  1.530435  1.526860  1.569273  1.564444  1.551186  1.565515  1.549086  1.548562 
average row locality = 437509/279032 = 1.567953
number of total memory accesses made:
dram[0]:         0         0         0         0         0         0         0         0         0         0         0         0         0         0         0         0 
dram[1]:         0         0         0         0         0         0         0         0         0         0         0         0         0         0         0         0 
dram[2]:         0         0         0         0         0         0         0         0         0         0         0         0         0         0         0         0 
dram[3]:         0         0         0         0         0         0         0         0         0         0         0         0         0         0         0         0 
dram[4]:         0         0         0         0         0         0         0         0         0         0         0         0         0         0         0         0 
dram[5]:         0         0         0         0         0         0         0         0         0         0         0         0         0         0         0         0 
total accesses: 0
min_bank_accesses = 0!
min_chip_accesses = 0!
number of total read accesses:
dram[0]:      3251      3246      3232      3232      3242      3242      3264      3264      3264      3264      3264      3264      3264      3264      3264      3264 
dram[1]:      3250      3246      3232      3232      3242      3242      3264      3264      3264      3264      3264      3264      3264      3264      3264      3264 
dram[2]:      3250      3246      3232      3232      3242      3244      3264      3264      3264      3264      3264      3264      3264      3264      3264      3264 
dram[3]:      3250      3246      3232      3232      3242      3244      3264      3264      3264      3264      3264      3264      3264      3264      3264      3264 
dram[4]:      3248      3246      3232      3232      3242      3244      3264      3264      3264      3264      3264      3264      3264      3264      3264      3264 
dram[5]:      3248      3246      3232      3232      3242      3244      3264      3264      3264      3264      3264      3264      3264      3264      3264      3264 
total reads: 312509
bank skew: 3264/3232 = 1.01
chip skew: 52086/52084 = 1.00
number of total write accesses:
dram[0]:      1286      1286      1280      1280      1290      1290      1312      1312      1312      1312      1312      1312      1312      1312      1312      1312 
dram[1]:      1286      1286      1280      1280      1290      1290      1312      1312      1312      1312      1312      1312      1312      1312      1312      1312 
dram[2]:      1286      1286      1280      1280      1290      1292      1312      1312      1312      1312      1312      1312      1312      1312      1312      1312 
dram[3]:      1286      1286      1280      1280      1290      1292      1312      1312      1312      1312      1312      1312      1312      1312      1312      1312 
dram[4]:      1286      1286      1280      1280      1290      1292      1312      1312      1312      1312      1312      1312      1312      1312      1312      1312 
dram[5]:      1286      1286      1280      1280      1290      1292      1312      1312      1312      1312      1312      1312      1312      1312      1312      1312 
total reads: 125000
bank skew: 1312/1280 = 1.02
chip skew: 20834/20832 = 1.00
average mf latency per bank:
dram[0]:        518       517       528       523       532       530       536       529       524       517       528       516       532       527       546       545
dram[1]:        451       455       464       467       462       470       472       469       457       467       462       460       464       469       474       485
dram[2]:        500       495       508       510       513       515       508       519       504       511       508       503       508       511       528       533
dram[3]:        487       500       490       507       495       516       505       517       486       508       490       508       497       510       505       535
dram[4]:        533       524       541       538       541       538       548       550       534       534       539       532       549       543       553       553
dram[5]:        447       455       462       469       463       472       463       475       451       461       456       460       460       469       476       489
maximum mf latency per bank:
dram[0]:       1478      1590      1608      1587      1601      1710      1850      1484      1510      1363      1788      1481      1763      1715      1708      1910
dram[1]:       1488      1239      1360      1441      1363      1342      1290      1416      1268      1299      1388      1347      1368      1320      1538      1516
dram[2]:       1613      1331      1371      1377      1654      1481      1621      1473      1568      1379      1968      1517      1581      1475      1524      1583
dram[3]:       1602      1452      1377      1520      1505      1365      1461      1446      1361      1523      1506      1482      1436      1325      1478      1744
dram[4]:       1635      1561      1407      1598      1672      1715      1602      1717      1479      1652      1666      1522      1786      1542      1829      1634
dram[5]:       1413      1407      1378      1290      1501      1376      1733      1499      1519      1450      1496      1396      1526      1310      1409      1450

Number of Memory Banks Accessed per Memory Operation per Warp (from 0):
0	0	0	0	0	0	0	0	0	0	0	0	0	0	0	0	0	0	0	0	0	0	0	0	0	0	0	0	0	0	0	0	0	0	0	0	0	0	0	0	0	0	0	0	0	0	0	0	0	0	0	0	0	0	0	0	0	0	0	0	0	0	0	0	0	0	0	0	0	0	0	0	0	0	0	0	0	0	0	0	0	0	0	0	0	0	0	0	0	0	0	0	0	0	0	0	
Average # of Memory Banks Accessed per Memory Operation per Warp=-nan

position of mrq chosen
0	0	0	0	0	0	0	0	0	0	0	0	0	0	0	0	

average position of mrq chosen = -nan
Memory Partition 0: 
Cache L2_bank_000:
MSHR contents

Cache L2_bank_001:
MSHR contents

In Dram Latency Queue (total = 0): 
DRAM[0]: 16 bks, busW=4 BL=8 CL=12, tRRD=2 tCCD=6, tRCD=12 tRAS=28 tRP=12 tRC=40
n_cmd=457895 n_nop=219997 n_act=46040 n_pre=46024 n_req=72917 n_rd=104170 n_write=41664 bw_util=0.637
n_activity=445300 dram_eff=0.655
bk0: 6502a 221404i bk1: 6492a 215567i bk2: 6464a 208896i bk3: 6464a 202588i bk4: 6484a 200214i bk5: 6484a 189395i bk6: 6528a 182662i bk7: 6528a 180535i bk8: 6528a 215437i bk9: 6528a 209440i bk10: 6528a 207758i bk11: 6528a 201171i bk12: 6528a 194472i bk13: 6528a 187061i bk14: 6528a 176094i bk15: 6528a 166878i 
dram_util_bins: 0 0 0 0 0 0 0 0 0 0
dram_eff_bins: 0 0 0 0 0 0 0 0 0 0
mrqq: max=16 avg=14.7763
Memory Partition 1: 
Cache L2_bank_002:
MSHR contents
MSHR: tag=0x80f1fd80, atomic=0 1 entries : 0x7f1fb9253720 :  mf: uid=7771324, sid07:w31, part=1, addr=0x80f1fd80, load , size=128, unknown  status = IN_PARTITION_DRAM (346888), 

Cache L2_bank_003:
MSHR contents

In Dram Latency Queue (total = 0): 
DRAM[1]: 16 bks, busW=4 BL=8 CL=12, tRRD=2 tCCD=6, tRCD=12 tRAS=28 tRP=12 tRC=40
n_cmd=457895 n_nop=218547 n_act=46766 n_pre=46750 n_req=72916 n_rd=104168 n_write=41664 bw_util=0.637
n_activity=448098 dram_eff=0.6509
bk0: 6500a 223259i bk1: 6492a 216051i bk2: 6464a 209818i bk3: 6464a 202961i bk4: 6484a 198810i bk5: 6484a 190215i bk6: 6528a 185565i bk7: 6528a 176795i bk8: 6528a 214960i bk9: 6528a 205235i bk10: 6528a 208141i bk11: 6528a 199943i bk12: 6528a 199784i bk13: 6528a 189199i bk14: 6528a 175990i bk15: 6528a 168217i 
dram_util_bins: 0 0 0 0 0 0 0 0 0 0
dram_eff_bins: 0 0 0 0 0 0 0 0 0 0
mrqq: max=16 avg=14.3367
Memory Partition 2: 
Cache L2_bank_004:
MSHR contents

Cache L2_bank_005:
MSHR contents

In Dram Latency Queue (total = 0): 
DRAM[2]: 16 bks, busW=4 BL=8 CL=12, tRRD=2 tCCD=6, tRCD=12 tRAS=28 tRP=12 tRC=40
n_cmd=457895 n_nop=219847 n_act=46112 n_pre=46096 n_req=72920 n_rd=104172 n_write=41668 bw_util=0.637
n_activity=445045 dram_eff=0.6554
bk0: 6500a 219007i bk1: 6492a 217619i bk2: 6464a 205999i bk3: 6464a 202367i bk4: 6484a 195887i bk5: 6488a 191732i bk6: 6528a 183218i bk7: 6528a 171576i bk8: 6528a 214850i bk9: 6528a 207538i bk10: 6528a 206914i bk11: 6528a 200088i bk12: 6528a 194872i bk13: 6528a 184208i bk14: 6528a 173078i bk15: 6528a 161374i 
dram_util_bins: 0 0 0 0 0 0 0 0 0 0
dram_eff_bins: 0 0 0 0 0 0 0 0 0 0
mrqq: max=16 avg=14.588
Memory Partition 3: 
Cache L2_bank_006:
MSHR contents

Cache L2_bank_007:
MSHR contents

In Dram Latency Queue (total = 0): 
DRAM[3]: 16 bks, busW=4 BL=8 CL=12, tRRD=2 tCCD=6, tRCD=12 tRAS=28 tRP=12 tRC=40
n_cmd=457895 n_nop=218211 n_act=46930 n_pre=46914 n_req=72920 n_rd=104172 n_write=41668 bw_util=0.637
n_activity=448052 dram_eff=0.651
bk0: 6500a 219659i bk1: 6492a 212124i bk2: 6464a 208153i bk3: 6464a 204655i bk4: 6484a 195874i bk5: 6488a 187176i bk6: 6528a 180888i bk7: 6528a 175179i bk8: 6528a 213816i bk9: 6528a 207609i bk10: 6528a 206846i bk11: 6528a 197752i bk12: 6528a 194978i bk13: 6528a 185379i bk14: 6528a 176636i bk15: 6528a 167903i 
dram_util_bins: 0 0 0 0 0 0 0 0 0 0
dram_eff_bins: 0 0 0 0 0 0 0 0 0 0
mrqq: max=16 avg=14.4306
Memory Partition 4: 
Cache L2_bank_008:
MSHR contents

Cache L2_bank_009:
MSHR contents

In Dram Latency Queue (total = 0): 
DRAM[4]: 16 bks, busW=4 BL=8 CL=12, tRRD=2 tCCD=6, tRCD=12 tRAS=28 tRP=12 tRC=40
n_cmd=457895 n_nop=219659 n_act=46208 n_pre=46192 n_req=72918 n_rd=104168 n_write=41668 bw_util=0.637
n_activity=445322 dram_eff=0.655
bk0: 6496a 222486i bk1: 6492a 216559i bk2: 6464a 207214i bk3: 6464a 203053i bk4: 6484a 198265i bk5: 6488a 189950i bk6: 6528a 184123i bk7: 6528a 173252i bk8: 6528a 213696i bk9: 6528a 209497i bk10: 6528a 204867i bk11: 6528a 198638i bk12: 6528a 194980i bk13: 6528a 187179i bk14: 6528a 180701i bk15: 6528a 167996i 
dram_util_bins: 0 0 0 0 0 0 0 0 0 0
dram_eff_bins: 0 0 0 0 0 0 0 0 0 0
mrqq: max=16 avg=14.6996
Memory Partition 5: 
Cache L2_bank_010:
MSHR contents

Cache L2_bank_011:
MSHR contents

In Dram Latency Queue (total = 0): 
DRAM[5]: 16 bks, busW=4 BL=8 CL=12, tRRD=2 tCCD=6, tRCD=12 tRAS=28 tRP=12 tRC=40
n_cmd=457895 n_nop=218123 n_act=46976 n_pre=46960 n_req=72918 n_rd=104168 n_write=41668 bw_util=0.637
n_activity=447999 dram_eff=0.6511
bk0: 6496a 223478i bk1: 6492a 217672i bk2: 6464a 206232i bk3: 6464a 201399i bk4: 6484a 196719i bk5: 6488a 189642i bk6: 6528a 186090i bk7: 6528a 174318i bk8: 6528a 220153i bk9: 6528a 208733i bk10: 6528a 209331i bk11: 6528a 204953i bk12: 6528a 195317i bk13: 6528a 188665i bk14: 6528a 178973i bk15: 6528a 168540i 
dram_util_bins: 0 0 0 0 0 0 0 0 0 0
dram_eff_bins: 0 0 0 0 0 0 0 0 0 0
mrqq: max=16 avg=14.1694

========= L2 cache stats =========
L2_cache_bank[0]: Access = 26087, Miss = 26045, Miss_rate = 0.998, Pending_hits = 9, Reservation_fails = 38106
L2_cache_bank[1]: Access = 26040, Miss = 26040, Miss_rate = 1.000, Pending_hits = 0, Reservation_fails = 40427
L2_cache_bank[2]: Access = 26072, Miss = 26044, Miss_rate = 0.999, Pending_hits = 6, Reservation_fails = 19058
L2_cache_bank[3]: Access = 26040, Miss = 26040, Miss_rate = 1.000, Pending_hits = 0, Reservation_fails = 21754
L2_cache_bank[4]: Access = 26072, Miss = 26044, Miss_rate = 0.999, Pending_hits = 6, Reservation_fails = 23554
L2_cache_bank[5]: Access = 26042, Miss = 26042, Miss_rate = 1.000, Pending_hits = 0, Reservation_fails = 26099
L2_cache_bank[6]: Access = 26072, Miss = 26044, Miss_rate = 0.999, Pending_hits = 6, Reservation_fails = 17822
L2_cache_bank[7]: Access = 26042, Miss = 26042, Miss_rate = 1.000, Pending_hits = 0, Reservation_fails = 27252
L2_cache_bank[8]: Access = 26042, Miss = 26042, Miss_rate = 1.000, Pending_hits = 0, Reservation_fails = 35755
L2_cache_bank[9]: Access = 26042, Miss = 26042, Miss_rate = 1.000, Pending_hits = 0, Reservation_fails = 38678
L2_cache_bank[10]: Access = 26042, Miss = 26042, Miss_rate = 1.000, Pending_hits = 0, Reservation_fails = 21961
L2_cache_bank[11]: Access = 26042, Miss = 26042, Miss_rate = 1.000, Pending_hits = 0, Reservation_fails = 26252
L2_total_cache_accesses = 312635
L2_total_cache_misses = 312509
L2_total_cache_miss_rate = 0.9996
L2_total_cache_pending_hits = 27
L2_total_cache_reservation_fails = 336718
L2_total_cache_breakdown:
	L2_cache_stats_breakdown[GLOBAL_ACC_R][MISS] = 187500
	L2_cache_stats_breakdown[GLOBAL_ACC_R][RESERVATION_FAIL] = 199857
	L2_cache_stats_breakdown[CONST_ACC_R][HIT] = 11
	L2_cache_stats_breakdown[CONST_ACC_R][HIT_RESERVED] = 3
	L2_cache_stats_breakdown[CONST_ACC_R][MISS] = 1
	L2_cache_stats_breakdown[CONST_ACC_R][RESERVATION_FAIL] = 109
	L2_cache_stats_breakdown[GLOBAL_ACC_W][MISS] = 125000
	L2_cache_stats_breakdown[GLOBAL_ACC_W][RESERVATION_FAIL] = 135962
	L2_cache_stats_breakdown[INST_ACC_R][HIT] = 88
	L2_cache_stats_breakdown[INST_ACC_R][HIT_RESERVED] = 24
	L2_cache_stats_breakdown[INST_ACC_R][MISS] = 8
	L2_cache_stats_breakdown[INST_ACC_R][RESERVATION_FAIL] = 790
L2_cache_data_port_util = 0.000
L2_cache_fill_port_util = 0.300

icnt_total_pkts_mem_to_simt=1063145
icnt_total_pkts_simt_to_mem=812635
LD_mem_lat_dist  0 0 0 0 0 0 0 0 0 0 0 0 0 0 0 0 0 0 0 0 0 0 0 0 0 0 0
ST_mem_lat_dist  0 0 0 0 0 0 0 0 0 0 0 0 0 0 0 0 0 0 0 0 0 0 0 0 0 0 0
----------------------------Interconnect-DETAILS--------------------------------
Class 0:
Packet latency average = 51.6496
	minimum = 6
	maximum = 768
Network latency average = 34.6817
	minimum = 6
	maximum = 598
Slowest packet = 4167
Flit latency average = 25.666
	minimum = 6
	maximum = 593
Slowest flit = 384984
Fragmentation average = 0.555334
	minimum = 0
	maximum = 425
Injected packet rate average = 0.0667591
	minimum = 0.0581998 (at node 5)
	maximum = 0.0752023 (at node 15)
Accepted packet rate average = 0.0667591
	minimum = 0.0581998 (at node 5)
	maximum = 0.0752023 (at node 15)
Injected flit rate average = 0.200274
	minimum = 0.151278 (at node 5)
	maximum = 0.255818 (at node 15)
Accepted flit rate average= 0.200274
	minimum = 0.195174 (at node 16)
	maximum = 0.210853 (at node 12)
Injected packet length average = 2.99995
Accepted packet length average = 2.99995
Total in-flight flits = 0 (0 measured)
====== Overall Traffic Statistics ======
====== Traffic class 0 ======
Packet latency average = 51.6496 (1 samples)
	minimum = 6 (1 samples)
	maximum = 768 (1 samples)
Network latency average = 34.6817 (1 samples)
	minimum = 6 (1 samples)
	maximum = 598 (1 samples)
Flit latency average = 25.666 (1 samples)
	minimum = 6 (1 samples)
	maximum = 593 (1 samples)
Fragmentation average = 0.555334 (1 samples)
	minimum = 0 (1 samples)
	maximum = 425 (1 samples)
Injected packet rate average = 0.0667591 (1 samples)
	minimum = 0.0581998 (1 samples)
	maximum = 0.0752023 (1 samples)
Accepted packet rate average = 0.0667591 (1 samples)
	minimum = 0.0581998 (1 samples)
	maximum = 0.0752023 (1 samples)
Injected flit rate average = 0.200274 (1 samples)
	minimum = 0.151278 (1 samples)
	maximum = 0.255818 (1 samples)
Accepted flit rate average = 0.200274 (1 samples)
	minimum = 0.195174 (1 samples)
	maximum = 0.210853 (1 samples)
Injected packet size average = 2.99995 (1 samples)
Accepted packet size average = 2.99995 (1 samples)
Hops average = 1 (1 samples)
----------------------------END-of-Interconnect-DETAILS-------------------------


gpgpu_simulation_time = 0 days, 0 hrs, 7 min, 24 sec (444 sec)
gpgpu_simulation_rate = 440949 (inst/sec)
gpgpu_simulation_rate = 781 (cycle/sec)
GPGPU-Sim: synchronize waiting for inactive GPU simulation
GPGPU-Sim API: Stream Manager State
GPGPU-Sim: detected inactive GPU simulation thread
Options count             : 4000000     
BlackScholesGPU() time    : 443198.343750 msec
Effective memory bandwidth: 0.000090 GB/s
Gigaoptions per second    : 0.000009     
Reading back GPU results...
Checking the results...
...running CPU calculations.
Comparing the results...
L1 norm: 1.729535E-07
Max absolute error: 1.192093E-05
TEST PASSED
Shutting down...
...releasing GPU memory.
...releasing CPU memory.
Shutdown done.
GPGPU-Sim: exit_simulation called
GPGPU-Sim: simulation thread signaled exit

Press ENTER to exit...
