

        *** GPGPU-Sim Simulator Version 3.2.2  [build 0] ***


GPGPU-Sim PTX: simulation mode 0 (can change with PTX_SIM_MODE_FUNC environment variable:
               1=functional simulation only, 0=detailed performance simulator)
GPGPU-Sim: Configuration options:

-network_mode                           1 # Interconnection network mode
-inter_config_file   config_fermi_islip.icnt # Interconnection network config file
-gpgpu_ptx_use_cuobjdump                    1 # Use cuobjdump to extract ptx and sass from binaries
-gpgpu_experimental_lib_support                    0 # Try to extract code from cuda libraries [Broken because of unknown cudaGetExportTable]
-gpgpu_ptx_convert_to_ptxplus                    0 # Convert SASS (native ISA) to ptxplus and run ptxplus
-gpgpu_ptx_force_max_capability                   20 # Force maximum compute capability
-gpgpu_ptx_inst_debug_to_file                    0 # Dump executed instructions' debug information to file
-gpgpu_ptx_inst_debug_file       inst_debug.txt # Executed instructions' debug output file
-gpgpu_ptx_inst_debug_thread_uid                    1 # Thread UID for executed instructions' debug output
-gpgpu_simd_model                       1 # 1 = post-dominator
-gpgpu_shader_core_pipeline              1536:32 # shader core pipeline config, i.e., {<nthread>:<warpsize>}
-gpgpu_tex_cache:l1  4:128:24,L:R:m:N:L,F:128:4,128:2 # per-shader L1 texture cache  (READ-ONLY) config  {<nsets>:<bsize>:<assoc>,<rep>:<wr>:<alloc>:<wr_alloc>,<mshr>:<N>:<merge>,<mq>:<rf>}
-gpgpu_const_cache:l1 64:64:2,L:R:f:N:L,A:2:32,4 # per-shader L1 constant memory cache  (READ-ONLY) config  {<nsets>:<bsize>:<assoc>,<rep>:<wr>:<alloc>:<wr_alloc>,<mshr>:<N>:<merge>,<mq>} 
-gpgpu_cache:il1     4:128:4,L:R:f:N:L,A:2:32,4 # shader L1 instruction cache config  {<nsets>:<bsize>:<assoc>,<rep>:<wr>:<alloc>:<wr_alloc>,<mshr>:<N>:<merge>,<mq>} 
-gpgpu_cache:dl1     32:128:4,L:L:m:N:H,A:32:8,8 # per-shader L1 data cache config  {<nsets>:<bsize>:<assoc>,<rep>:<wr>:<alloc>:<wr_alloc>,<mshr>:<N>:<merge>,<mq> | none}
-gpgpu_cache:dl1PrefL1                 none # per-shader L1 data cache config  {<nsets>:<bsize>:<assoc>,<rep>:<wr>:<alloc>:<wr_alloc>,<mshr>:<N>:<merge>,<mq> | none}
-gpgpu_cache:dl1PreShared                 none # per-shader L1 data cache config  {<nsets>:<bsize>:<assoc>,<rep>:<wr>:<alloc>:<wr_alloc>,<mshr>:<N>:<merge>,<mq> | none}
-gmem_skip_L1D                          0 # global memory access skip L1D cache (implements -Xptxas -dlcm=cg, default=no skip)
-gpgpu_perfect_mem                      0 # enable perfect memory mode (no cache miss)
-n_regfile_gating_group                    4 # group of lanes that should be read/written together)
-gpgpu_clock_gated_reg_file                    0 # enable clock gated reg file for power calculations
-gpgpu_clock_gated_lanes                    0 # enable clock gated lanes for power calculations
-gpgpu_shader_registers                32768 # Number of registers per shader core. Limits number of concurrent CTAs. (default 8192)
-gpgpu_shader_cta                       8 # Maximum number of concurrent CTAs in shader (default 8)
-gpgpu_num_cta_barriers                   16 # Maximum number of named barriers per CTA (default 16)
-gpgpu_n_clusters                      15 # number of processing clusters
-gpgpu_n_cores_per_cluster                    1 # number of simd cores per cluster
-gpgpu_n_cluster_ejection_buffer_size                    8 # number of packets in ejection buffer
-gpgpu_n_ldst_response_buffer_size                    2 # number of response packets in ld/st unit ejection buffer
-gpgpu_shmem_size                   16384 # Size of shared memory per shader core (default 16kB)
-gpgpu_shmem_size                   49152 # Size of shared memory per shader core (default 16kB)
-gpgpu_shmem_size_PrefL1                16384 # Size of shared memory per shader core (default 16kB)
-gpgpu_shmem_size_PrefShared                16384 # Size of shared memory per shader core (default 16kB)
-gpgpu_shmem_num_banks                   32 # Number of banks in the shared memory in each shader core (default 16)
-gpgpu_shmem_limited_broadcast                    0 # Limit shared memory to do one broadcast per cycle (default on)
-gpgpu_shmem_warp_parts                    1 # Number of portions a warp is divided into for shared memory bank conflict check 
-gpgpu_warpdistro_shader                   -1 # Specify which shader core to collect the warp size distribution from
-gpgpu_warp_issue_shader                    0 # Specify which shader core to collect the warp issue distribution from
-gpgpu_local_mem_map                    1 # Mapping from local memory space address to simulated GPU physical address space (default = enabled)
-gpgpu_num_reg_banks                   16 # Number of register banks (default = 8)
-gpgpu_reg_bank_use_warp_id                    0 # Use warp ID in mapping registers to banks (default = off)
-gpgpu_operand_collector_num_units_sp                    6 # number of collector units (default = 4)
-gpgpu_operand_collector_num_units_sfu                    8 # number of collector units (default = 4)
-gpgpu_operand_collector_num_units_mem                    2 # number of collector units (default = 2)
-gpgpu_operand_collector_num_units_gen                    0 # number of collector units (default = 0)
-gpgpu_operand_collector_num_in_ports_sp                    2 # number of collector unit in ports (default = 1)
-gpgpu_operand_collector_num_in_ports_sfu                    1 # number of collector unit in ports (default = 1)
-gpgpu_operand_collector_num_in_ports_mem                    1 # number of collector unit in ports (default = 1)
-gpgpu_operand_collector_num_in_ports_gen                    0 # number of collector unit in ports (default = 0)
-gpgpu_operand_collector_num_out_ports_sp                    2 # number of collector unit in ports (default = 1)
-gpgpu_operand_collector_num_out_ports_sfu                    1 # number of collector unit in ports (default = 1)
-gpgpu_operand_collector_num_out_ports_mem                    1 # number of collector unit in ports (default = 1)
-gpgpu_operand_collector_num_out_ports_gen                    0 # number of collector unit in ports (default = 0)
-gpgpu_coalesce_arch                   13 # Coalescing arch (default = 13, anything else is off for now)
-gpgpu_num_sched_per_core                    2 # Number of warp schedulers per core
-gpgpu_max_insn_issue_per_warp                    1 # Max number of instructions that can be issued per warp in one cycle by scheduler
-gpgpu_simt_core_sim_order                    1 # Select the simulation order of cores in a cluster (0=Fix, 1=Round-Robin)
-gpgpu_pipeline_widths        2,1,1,2,1,1,2 # Pipeline widths ID_OC_SP,ID_OC_SFU,ID_OC_MEM,OC_EX_SP,OC_EX_SFU,OC_EX_MEM,EX_WB
-gpgpu_num_sp_units                     2 # Number of SP units (default=1)
-gpgpu_num_sfu_units                    1 # Number of SF units (default=1)
-gpgpu_num_mem_units                    1 # Number if ldst units (default=1) WARNING: not hooked up to anything
-gpgpu_scheduler                      gto # Scheduler configuration: < lrr | gto | two_level_active > If two_level_active:<num_active_warps>:<inner_prioritization>:<outer_prioritization>For complete list of prioritization values see shader.h enum scheduler_prioritization_typeDefault: gto
-gpgpu_dram_scheduler                    1 # 0 = fifo, 1 = FR-FCFS (defaul)
-gpgpu_dram_partition_queues              8:8:8:8 # i2$:$2d:d2$:$2i
-l2_ideal                               0 # Use a ideal L2 cache that always hit
-gpgpu_cache:dl2     64:128:8,L:B:m:W:L,A:32:4,4:0,32 # unified banked L2 data cache config  {<nsets>:<bsize>:<assoc>,<rep>:<wr>:<alloc>:<wr_alloc>,<mshr>:<N>:<merge>,<mq>}
-gpgpu_cache:dl2_texture_only                    0 # L2 cache used for texture only
-gpgpu_n_mem                            6 # number of memory modules (e.g. memory controllers) in gpu
-gpgpu_n_sub_partition_per_mchannel                    2 # number of memory subpartition in each memory module
-gpgpu_n_mem_per_ctrlr                    2 # number of memory chips per memory controller
-gpgpu_memlatency_stat                   14 # track and display latency statistics 0x2 enables MC, 0x4 enables queue logs
-gpgpu_frfcfs_dram_sched_queue_size                   16 # 0 = unlimited (default); # entries per chip
-gpgpu_dram_return_queue_size                  116 # 0 = unlimited (default); # entries per chip
-gpgpu_dram_buswidth                    4 # default = 4 bytes (8 bytes per cycle at DDR)
-gpgpu_dram_burst_length                    4 # Burst length of each DRAM request (default = 4 data bus cycle)
-dram_data_command_freq_ratio                    4 # Frequency ratio between DRAM data bus and command bus (default = 2 times, i.e. DDR)
-gpgpu_dram_timing_opt nbk=16:CCD=2:RRD=6:RCD=12:RAS=28:RP=12:RC=40: CL=12:WL=4:CDLR=5:WR=12:nbkgrp=4:CCDL=3:RTPL=2 # DRAM timing parameters = {nbk:tCCD:tRRD:tRCD:tRAS:tRP:tRC:CL:WL:tCDLR:tWR:nbkgrp:tCCDL:tRTPL}
-rop_latency                          120 # ROP queue latency (default 85)
-dram_latency                         100 # DRAM latency (default 30)
-gpgpu_mem_addr_mapping dramid@8;00000000.00000000.00000000.00000000.0000RRRR.RRRRRRRR.BBBCCCCB.CCSSSSSS # mapping memory address to dram model {dramid@<start bit>;<memory address map>}
-gpgpu_mem_addr_test                    0 # run sweep test to check address mapping for aliased address
-gpgpu_mem_address_mask                    1 # 0 = old addressing mask, 1 = new addressing mask, 2 = new add. mask + flipped bank sel and chip sel bits
-gpuwattch_xml_file  gpuwattch_gtx480.xml # GPUWattch XML file
-power_simulation_enabled                    0 # Turn on power simulator (1=On, 0=Off)
-power_per_cycle_dump                    0 # Dump detailed power output each cycle
-power_trace_enabled                    0 # produce a file for the power trace (1=On, 0=Off)
-power_trace_zlevel                     6 # Compression level of the power trace output log (0=no comp, 9=highest)
-steady_power_levels_enabled                    0 # produce a file for the steady power levels (1=On, 0=Off)
-steady_state_definition                  8:4 # allowed deviation:number of samples
-gpgpu_max_cycle                        0 # terminates gpu simulation early (0 = no limit)
-gpgpu_max_insn                         0 # terminates gpu simulation early (0 = no limit)
-gpgpu_max_cta                          0 # terminates gpu simulation early (0 = no limit)
-gpgpu_runtime_stat                   500 # display runtime statistics such as dram utilization {<freq>:<flag>}
-liveness_message_freq                    1 # Minimum number of seconds between simulation liveness messages (0 = always print)
-gpgpu_flush_l1_cache                    0 # Flush L1 cache at the end of each kernel call
-gpgpu_flush_l2_cache                    0 # Flush L2 cache at the end of each kernel call
-gpgpu_deadlock_detect                    1 # Stop the simulation at deadlock (1=on (default), 0=off)
-gpgpu_ptx_instruction_classification                    0 # if enabled will classify ptx instruction types per kernel (Max 255 kernels now)
-gpgpu_ptx_sim_mode                     0 # Select between Performance (default) or Functional simulation (1)
-gpgpu_clock_domains 700.0:700.0:700.0:924.0 # Clock Domain Frequencies in MhZ {<Core Clock>:<ICNT Clock>:<L2 Clock>:<DRAM Clock>}
-gpgpu_max_concurrent_kernel                    8 # maximum kernels that can run concurrently on GPU
-gpgpu_cflog_interval                    0 # Interval between each snapshot in control flow logger
-visualizer_enabled                     0 # Turn on visualizer output (1=On, 0=Off)
-visualizer_outputfile                 NULL # Specifies the output log file for visualizer
-visualizer_zlevel                      6 # Compression level of the visualizer output log (0=no comp, 9=highest)
-trace_enabled                          0 # Turn on traces
-trace_components                    none # comma seperated list of traces to enable. Complete list found in trace_streams.tup. Default none
-trace_sampling_core                    0 # The core which is printed using CORE_DPRINTF. Default 0
-trace_sampling_memory_partition                   -1 # The memory partition which is printed using MEMPART_DPRINTF. Default -1 (i.e. all)
-enable_ptx_file_line_stats                    1 # Turn on PTX source line statistic profiling. (1 = On)
-ptx_line_stats_filename gpgpu_inst_stats.txt # Output file for PTX source line statistics.
-save_embedded_ptx                      0 # saves ptx files embedded in binary as <n>.ptx
-keep                                   0 # keep intermediate files created by GPGPU-Sim when interfacing with external programs
-gpgpu_ptx_save_converted_ptxplus                    0 # Saved converted ptxplus to a file
-ptx_opcode_latency_int         4,13,4,5,145 # Opcode latencies for integers <ADD,MAX,MUL,MAD,DIV>Default 1,1,19,25,145
-ptx_opcode_latency_fp          4,13,4,5,39 # Opcode latencies for single precision floating points <ADD,MAX,MUL,MAD,DIV>Default 1,1,1,1,30
-ptx_opcode_latency_dp         8,19,8,8,330 # Opcode latencies for double precision floating points <ADD,MAX,MUL,MAD,DIV>Default 8,8,8,8,335
-ptx_opcode_initiation_int            1,2,2,1,8 # Opcode initiation intervals for integers <ADD,MAX,MUL,MAD,DIV>Default 1,1,4,4,32
-ptx_opcode_initiation_fp            1,2,1,1,4 # Opcode initiation intervals for single precision floating points <ADD,MAX,MUL,MAD,DIV>Default 1,1,1,1,5
-ptx_opcode_initiation_dp         8,16,8,8,130 # Opcode initiation intervals for double precision floating points <ADD,MAX,MUL,MAD,DIV>Default 8,8,8,8,130
DRAM Timing Options:
nbk                                    16 # number of banks
CCD                                     2 # column to column delay
RRD                                     6 # minimal delay between activation of rows in different banks
RCD                                    12 # row to column delay
RAS                                    28 # time needed to activate row
RP                                     12 # time needed to precharge (deactivate) row
RC                                     40 # row cycle time
CDLR                                    5 # switching from write to read (changes tWTR)
WR                                     12 # last data-in to row precharge
CL                                     12 # CAS latency
WL                                      4 # Write latency
nbkgrp                                  4 # number of bank groups
CCDL                                    3 # column to column delay between accesses to different bank groups
RTPL                                    2 # read to precharge delay between accesses to different bank groups
Total number of memory sub partition = 12
addr_dec_mask[CHIP]  = 0000000000000000 	high:64 low:0
addr_dec_mask[BK]    = 000000000000e100 	high:16 low:8
addr_dec_mask[ROW]   = 000000000fff0000 	high:28 low:16
addr_dec_mask[COL]   = 0000000000001eff 	high:13 low:0
addr_dec_mask[BURST] = 000000000000003f 	high:6 low:0
sub_partition_id_mask = 0000000000000100
GPGPU-Sim uArch: clock freqs: 700000000.000000:700000000.000000:700000000.000000:924000000.000000
GPGPU-Sim uArch: clock periods: 0.00000000142857142857:0.00000000142857142857:0.00000000142857142857:0.00000000108225108225
*** Initializing Memory Statistics ***
GPGPU-Sim uArch: interconnect node map (shaderID+MemID to icntID)
GPGPU-Sim uArch: Memory nodes ID start from index: 15
GPGPU-Sim uArch:    0   1   2   3   4
GPGPU-Sim uArch:    5   6   7   8   9
GPGPU-Sim uArch:   10  11  12  13  14
GPGPU-Sim uArch:   15  16  17  18  19
GPGPU-Sim uArch:   20  21  22  23  24
GPGPU-Sim uArch:   25  26
GPGPU-Sim uArch: interconnect node reverse map (icntID to shaderID+MemID)
GPGPU-Sim uArch: Memory nodes start from ID: 15
GPGPU-Sim uArch:    0   1   2   3   4
GPGPU-Sim uArch:    5   6   7   8   9
GPGPU-Sim uArch:   10  11  12  13  14
GPGPU-Sim uArch:   15  16  17  18  19
GPGPU-Sim uArch:   20  21  22  23  24
GPGPU-Sim uArch:   25  26
316bcbff5f8f022bb22b20bb4721e93e  /sciclone/data20/adwait/applications/benchmarks/CUDA/RAY/gpgpu_ptx_sim__RAY
GPGPU-Sim uArch: performance model initialization complete.
GPGPU-Sim PTX: __cudaRegisterFatBinary, fat_cubin_handle = 1, filename=rayTracing.cu
self exe links to: /sciclone/data20/adwait/applications/benchmarks/CUDA/RAY/gpgpu_ptx_sim__RAY
Running md5sum using "md5sum /sciclone/data20/adwait/applications/benchmarks/CUDA/RAY/gpgpu_ptx_sim__RAY "
Parsing file _cuobjdump_complete_output_1Vx8Wf
######### cuobjdump parser ########
## Adding new section ELF
Adding arch: sm_20
Adding identifier: rayTracing.cu
## Adding new section PTX
Adding ptx filename: _cuobjdump_1.ptx
Adding arch: sm_20
Adding identifier: rayTracing.cu
Done parsing!!!
GPGPU-Sim PTX: __cudaRegisterFunction _Z6renderPjP4Nodejjff : hostFun 0x0x40ce13, fat_cubin_handle = 1
GPGPU-Sim PTX: allocating stack frame region for .param "__cudaretf__Zmi6float3S_" from 0x0 to 0xc
GPGPU-Sim PTX: allocating stack frame region for .param "__cudaparmf1__Zmi6float3S_" from 0xc to 0x18
GPGPU-Sim PTX: allocating stack frame region for .param "__cudaparmf2__Zmi6float3S_" from 0x18 to 0x24
GPGPU-Sim PTX: allocating stack frame region for .param "__cudaretf__Z9normalize6float3" from 0x0 to 0xc
GPGPU-Sim PTX: allocating stack frame region for .param "__cudaparmf1__Z9normalize6float3" from 0xc to 0x18
GPGPU-Sim PTX: allocating stack frame region for .param "__cudaretf__Z18intersectionSphere5Rayon6float3f" from 0x0 to 0x4
GPGPU-Sim PTX: allocating stack frame region for .param "__cudaparmf1__Z18intersectionSphere5Rayon6float3f" from 0x4 to 0x1c
GPGPU-Sim PTX: allocating stack frame region for .param "__cudaparmf2__Z18intersectionSphere5Rayon6float3f" from 0x1c to 0x28
GPGPU-Sim PTX: allocating stack frame region for .param "__cudaparmf3__Z18intersectionSphere5Rayon6float3f" from 0x28 to 0x2c
GPGPU-Sim PTX: allocating stack frame region for .param "__cudaretf__Z16intersectionPlan5Rayon6float3S0_" from 0x0 to 0x4
GPGPU-Sim PTX: allocating stack frame region for .param "__cudaparmf1__Z16intersectionPlan5Rayon6float3S0_" from 0x4 to 0x1c
GPGPU-Sim PTX: allocating stack frame region for .param "__cudaparmf2__Z16intersectionPlan5Rayon6float3S0_" from 0x1c to 0x28
GPGPU-Sim PTX: allocating stack frame region for .param "__cudaparmf3__Z16intersectionPlan5Rayon6float3S0_" from 0x28 to 0x34
GPGPU-Sim PTX: allocating stack frame region for .param "__cudaretf__Z10getNormale6float3S_" from 0x0 to 0xc
GPGPU-Sim PTX: allocating stack frame region for .param "__cudaparmf1__Z10getNormale6float3S_" from 0xc to 0x18
GPGPU-Sim PTX: allocating stack frame region for .param "__cudaparmf2__Z10getNormale6float3S_" from 0x18 to 0x24
GPGPU-Sim PTX: allocating stack frame region for .param "__cudaretf__Z11getNormaleP6float3" from 0x0 to 0xc
GPGPU-Sim PTX: allocating stack frame region for .param "__cudaparmf1__Z11getNormaleP6float3" from 0xc to 0x18
GPGPU-Sim PTX: allocating stack frame region for .param "__cudaretf__Z14rgbaFloatToInt6float4" from 0x0 to 0x4
GPGPU-Sim PTX: allocating stack frame region for .param "__cudaparmf1__Z14rgbaFloatToInt6float4" from 0x4 to 0x14
GPGPU-Sim PTX: allocating stack frame region for .param "__cudaretf__Z12notShadowRayP4Node6float3S1_f" from 0x0 to 0x4
GPGPU-Sim PTX: allocating stack frame region for .param "__cudaparmf1__Z12notShadowRayP4Node6float3S1_f" from 0x4 to 0xc
GPGPU-Sim PTX: allocating stack frame region for .param "__cudaparmf2__Z12notShadowRayP4Node6float3S1_f" from 0xc to 0x18
GPGPU-Sim PTX: allocating stack frame region for .param "__cudaparmf3__Z12notShadowRayP4Node6float3S1_f" from 0x18 to 0x24
GPGPU-Sim PTX: allocating stack frame region for .param "__cudaparmf4__Z12notShadowRayP4Node6float3S1_f" from 0x24 to 0x28
GPGPU-Sim PTX: allocating stack frame region for .param "__cudaretf__Z15float2int_pow20f" from 0x0 to 0x4
GPGPU-Sim PTX: allocating stack frame region for .param "__cudaparmf1__Z15float2int_pow20f" from 0x4 to 0x8
GPGPU-Sim PTX: allocating stack frame region for .param "__cudaretf__Z15float2int_pow50f" from 0x0 to 0x4
GPGPU-Sim PTX: allocating stack frame region for .param "__cudaparmf1__Z15float2int_pow50f" from 0x4 to 0x8
GPGPU-Sim PTX: allocating stack frame region for .param "__cudaparmf1__ZN4dim3C1Ejjj" from 0x0 to 0x8
GPGPU-Sim PTX: allocating stack frame region for .param "__cudaparmf2__ZN4dim3C1Ejjj" from 0x8 to 0xc
GPGPU-Sim PTX: allocating stack frame region for .param "__cudaparmf3__ZN4dim3C1Ejjj" from 0xc to 0x10
GPGPU-Sim PTX: allocating stack frame region for .param "__cudaparmf4__ZN4dim3C1Ejjj" from 0x10 to 0x14
GPGPU-Sim PTX: instruction assembly for function '_Zmi6float3S_'...   done.
GPGPU-Sim PTX: finding reconvergence points for '_Zmi6float3S_'...
GPGPU-Sim PTX: Finding dominators for '_Zmi6float3S_'...
GPGPU-Sim PTX: Finding immediate dominators for '_Zmi6float3S_'...
GPGPU-Sim PTX: Finding postdominators for '_Zmi6float3S_'...
GPGPU-Sim PTX: Finding immediate postdominators for '_Zmi6float3S_'...
GPGPU-Sim PTX: pre-decoding instructions for '_Zmi6float3S_'...
GPGPU-Sim PTX: reconvergence points for _Zmi6float3S_...
GPGPU-Sim PTX: ... end of reconvergence points for _Zmi6float3S_
GPGPU-Sim PTX: ... done pre-decoding instructions for '_Zmi6float3S_'.
GPGPU-Sim PTX: instruction assembly for function '_Z9normalize6float3'...   done.
GPGPU-Sim PTX: finding reconvergence points for '_Z9normalize6float3'...
GPGPU-Sim PTX: Finding dominators for '_Z9normalize6float3'...
GPGPU-Sim PTX: Finding immediate dominators for '_Z9normalize6float3'...
GPGPU-Sim PTX: Finding postdominators for '_Z9normalize6float3'...
GPGPU-Sim PTX: Finding immediate postdominators for '_Z9normalize6float3'...
GPGPU-Sim PTX: pre-decoding instructions for '_Z9normalize6float3'...
GPGPU-Sim PTX: reconvergence points for _Z9normalize6float3...
GPGPU-Sim PTX: ... end of reconvergence points for _Z9normalize6float3
GPGPU-Sim PTX: ... done pre-decoding instructions for '_Z9normalize6float3'.
GPGPU-Sim PTX: instruction assembly for function '_Z18intersectionSphere5Rayon6float3f'...   done.
GPGPU-Sim PTX: finding reconvergence points for '_Z18intersectionSphere5Rayon6float3f'...
GPGPU-Sim PTX: Finding dominators for '_Z18intersectionSphere5Rayon6float3f'...
GPGPU-Sim PTX: Finding immediate dominators for '_Z18intersectionSphere5Rayon6float3f'...
GPGPU-Sim PTX: Finding postdominators for '_Z18intersectionSphere5Rayon6float3f'...
GPGPU-Sim PTX: Finding immediate postdominators for '_Z18intersectionSphere5Rayon6float3f'...
GPGPU-Sim PTX: pre-decoding instructions for '_Z18intersectionSphere5Rayon6float3f'...
GPGPU-Sim PTX: reconvergence points for _Z18intersectionSphere5Rayon6float3f...
GPGPU-Sim PTX:  1 (potential) branch divergence @  PC=0x250 (_1.ptx:173) @%p2 bra $Lt_2_3074;
GPGPU-Sim PTX:    immediate post dominator      @  PC=0x2c0 (_1.ptx:193) mov.f32 %f39, %f32;
GPGPU-Sim PTX:  2 (potential) branch divergence @  PC=0x260 (_1.ptx:175) bra.uni $Lt_2_2818;
GPGPU-Sim PTX:    immediate post dominator      @  PC=0x2c0 (_1.ptx:193) mov.f32 %f39, %f32;
GPGPU-Sim PTX:  3 (potential) branch divergence @  PC=0x280 (_1.ptx:180) @!%p3 bra $Lt_2_3586;
GPGPU-Sim PTX:    immediate post dominator      @  PC=0x2c0 (_1.ptx:193) mov.f32 %f39, %f32;
GPGPU-Sim PTX:  4 (potential) branch divergence @  PC=0x290 (_1.ptx:182) bra.uni $Lt_2_3330;
GPGPU-Sim PTX:    immediate post dominator      @  PC=0x2c0 (_1.ptx:193) mov.f32 %f39, %f32;
GPGPU-Sim PTX: ... end of reconvergence points for _Z18intersectionSphere5Rayon6float3f
GPGPU-Sim PTX: ... done pre-decoding instructions for '_Z18intersectionSphere5Rayon6float3f'.
GPGPU-Sim PTX: instruction assembly for function '_Z16intersectionPlan5Rayon6float3S0_'...   done.
GPGPU-Sim PTX: finding reconvergence points for '_Z16intersectionPlan5Rayon6float3S0_'...
GPGPU-Sim PTX: Finding dominators for '_Z16intersectionPlan5Rayon6float3S0_'...
GPGPU-Sim PTX: Finding immediate dominators for '_Z16intersectionPlan5Rayon6float3S0_'...
GPGPU-Sim PTX: Finding postdominators for '_Z16intersectionPlan5Rayon6float3S0_'...
GPGPU-Sim PTX: Finding immediate postdominators for '_Z16intersectionPlan5Rayon6float3S0_'...
GPGPU-Sim PTX: pre-decoding instructions for '_Z16intersectionPlan5Rayon6float3S0_'...
GPGPU-Sim PTX: reconvergence points for _Z16intersectionPlan5Rayon6float3S0_...
GPGPU-Sim PTX:  1 (potential) branch divergence @  PC=0x320 (_1.ptx:214) @!%p1 bra $Lt_3_2050;
GPGPU-Sim PTX:    immediate post dominator      @  PC=0x368 (_1.ptx:227) mov.f32 %f14, %f9;
GPGPU-Sim PTX:  2 (potential) branch divergence @  PC=0x330 (_1.ptx:216) bra.uni $Lt_3_1794;
GPGPU-Sim PTX:    immediate post dominator      @  PC=0x368 (_1.ptx:227) mov.f32 %f14, %f9;
GPGPU-Sim PTX: ... end of reconvergence points for _Z16intersectionPlan5Rayon6float3S0_
GPGPU-Sim PTX: ... done pre-decoding instructions for '_Z16intersectionPlan5Rayon6float3S0_'.
GPGPU-Sim PTX: instruction assembly for function '_Z10getNormale6float3S_'...   done.
GPGPU-Sim PTX: finding reconvergence points for '_Z10getNormale6float3S_'...
GPGPU-Sim PTX: Finding dominators for '_Z10getNormale6float3S_'...
GPGPU-Sim PTX: Finding immediate dominators for '_Z10getNormale6float3S_'...
GPGPU-Sim PTX: Finding postdominators for '_Z10getNormale6float3S_'...
GPGPU-Sim PTX: Finding immediate postdominators for '_Z10getNormale6float3S_'...
GPGPU-Sim PTX: pre-decoding instructions for '_Z10getNormale6float3S_'...
GPGPU-Sim PTX: reconvergence points for _Z10getNormale6float3S_...
GPGPU-Sim PTX: ... end of reconvergence points for _Z10getNormale6float3S_
GPGPU-Sim PTX: ... done pre-decoding instructions for '_Z10getNormale6float3S_'.
GPGPU-Sim PTX: instruction assembly for function '_Z11getNormaleP6float3'...   done.
GPGPU-Sim PTX: finding reconvergence points for '_Z11getNormaleP6float3'...
GPGPU-Sim PTX: Finding dominators for '_Z11getNormaleP6float3'...
GPGPU-Sim PTX: Finding immediate dominators for '_Z11getNormaleP6float3'...
GPGPU-Sim PTX: Finding postdominators for '_Z11getNormaleP6float3'...
GPGPU-Sim PTX: Finding immediate postdominators for '_Z11getNormaleP6float3'...
GPGPU-Sim PTX: pre-decoding instructions for '_Z11getNormaleP6float3'...
GPGPU-Sim PTX: reconvergence points for _Z11getNormaleP6float3...
GPGPU-Sim PTX: ... end of reconvergence points for _Z11getNormaleP6float3
GPGPU-Sim PTX: ... done pre-decoding instructions for '_Z11getNormaleP6float3'.
GPGPU-Sim PTX: instruction assembly for function '_Z14rgbaFloatToInt6float4'...   done.
GPGPU-Sim PTX: finding reconvergence points for '_Z14rgbaFloatToInt6float4'...
GPGPU-Sim PTX: Finding dominators for '_Z14rgbaFloatToInt6float4'...
GPGPU-Sim PTX: Finding immediate dominators for '_Z14rgbaFloatToInt6float4'...
GPGPU-Sim PTX: Finding postdominators for '_Z14rgbaFloatToInt6float4'...
GPGPU-Sim PTX: Finding immediate postdominators for '_Z14rgbaFloatToInt6float4'...
GPGPU-Sim PTX: pre-decoding instructions for '_Z14rgbaFloatToInt6float4'...
GPGPU-Sim PTX: reconvergence points for _Z14rgbaFloatToInt6float4...
GPGPU-Sim PTX: ... end of reconvergence points for _Z14rgbaFloatToInt6float4
GPGPU-Sim PTX: ... done pre-decoding instructions for '_Z14rgbaFloatToInt6float4'.
GPGPU-Sim PTX: allocating global region for "cnode" from 0x100 to 0x1a0 (global memory space)
GPGPU-Sim PTX: instruction assembly for function '_Z12notShadowRayP4Node6float3S1_f'...   done.
GPGPU-Sim PTX: finding reconvergence points for '_Z12notShadowRayP4Node6float3S1_f'...
GPGPU-Sim PTX: Finding dominators for '_Z12notShadowRayP4Node6float3S1_f'...
GPGPU-Sim PTX: Finding immediate dominators for '_Z12notShadowRayP4Node6float3S1_f'...
GPGPU-Sim PTX: Finding postdominators for '_Z12notShadowRayP4Node6float3S1_f'...
GPGPU-Sim PTX: Finding immediate postdominators for '_Z12notShadowRayP4Node6float3S1_f'...
GPGPU-Sim PTX: pre-decoding instructions for '_Z12notShadowRayP4Node6float3S1_f'...
GPGPU-Sim PTX: reconvergence points for _Z12notShadowRayP4Node6float3S1_f...
GPGPU-Sim PTX:  1 (potential) branch divergence @  PC=0x638 (_1.ptx:364) @%p1 bra $Lt_7_8450;
GPGPU-Sim PTX:    immediate post dominator      @  PC=0x828 (_1.ptx:441) mov.f32 %f58, 0f00000000;    // 0
GPGPU-Sim PTX:  2 (potential) branch divergence @  PC=0x658 (_1.ptx:369) @!%p2 bra $Lt_7_8962;
GPGPU-Sim PTX:    immediate post dominator      @  PC=0x6b8 (_1.ptx:385) mov.f32 %f28, %f20;
GPGPU-Sim PTX:  3 (potential) branch divergence @  PC=0x668 (_1.ptx:371) bra.uni $Lt_7_8706;
GPGPU-Sim PTX:    immediate post dominator      @  PC=0x6b8 (_1.ptx:385) mov.f32 %f28, %f20;
GPGPU-Sim PTX:  4 (potential) branch divergence @  PC=0x6c0 (_1.ptx:386) bra.uni $Lt_7_8194;
GPGPU-Sim PTX:    immediate post dominator      @  PC=0x828 (_1.ptx:441) mov.f32 %f58, 0f00000000;    // 0
GPGPU-Sim PTX:  5 (potential) branch divergence @  PC=0x7b0 (_1.ptx:418) @%p5 bra $Lt_7_9474;
GPGPU-Sim PTX:    immediate post dominator      @  PC=0x820 (_1.ptx:438) mov.f32 %f28, %f51;
GPGPU-Sim PTX:  6 (potential) branch divergence @  PC=0x7c0 (_1.ptx:420) bra.uni $Lt_7_9730;
GPGPU-Sim PTX:    immediate post dominator      @  PC=0x820 (_1.ptx:438) mov.f32 %f28, %f51;
GPGPU-Sim PTX:  7 (potential) branch divergence @  PC=0x7e0 (_1.ptx:425) @!%p6 bra $Lt_7_9986;
GPGPU-Sim PTX:    immediate post dominator      @  PC=0x820 (_1.ptx:438) mov.f32 %f28, %f51;
GPGPU-Sim PTX:  8 (potential) branch divergence @  PC=0x7f0 (_1.ptx:427) bra.uni $Lt_7_9730;
GPGPU-Sim PTX:    immediate post dominator      @  PC=0x820 (_1.ptx:438) mov.f32 %f28, %f51;
GPGPU-Sim PTX:  9 (potential) branch divergence @  PC=0x838 (_1.ptx:443) @!%p7 bra $Lt_7_10242;
GPGPU-Sim PTX:    immediate post dominator      @  PC=0x8e8 (_1.ptx:468) add.s32 %r1, %r1, 1;
GPGPU-Sim PTX: 10 (potential) branch divergence @  PC=0x8d8 (_1.ptx:463) @!%p8 bra $Lt_7_10242;
GPGPU-Sim PTX:    immediate post dominator      @  PC=0x8e8 (_1.ptx:468) add.s32 %r1, %r1, 1;
GPGPU-Sim PTX: 11 (potential) branch divergence @  PC=0x908 (_1.ptx:472) @%p9 bra $Lt_7_10754;
GPGPU-Sim PTX:    immediate post dominator      @  PC=0x960 (_1.ptx:486) selp.s32 %r10, 1, 0, %p11;
GPGPU-Sim PTX: 12 (potential) branch divergence @  PC=0x930 (_1.ptx:477) @%p10 bra $L_7_7170;
GPGPU-Sim PTX:    immediate post dominator      @  PC=0x960 (_1.ptx:486) selp.s32 %r10, 1, 0, %p11;
GPGPU-Sim PTX: 13 (potential) branch divergence @  PC=0x938 (_1.ptx:478) bra.uni $L_7_7938;
GPGPU-Sim PTX:    immediate post dominator      @  PC=0x960 (_1.ptx:486) selp.s32 %r10, 1, 0, %p11;
GPGPU-Sim PTX: ... end of reconvergence points for _Z12notShadowRayP4Node6float3S1_f
GPGPU-Sim PTX: ... done pre-decoding instructions for '_Z12notShadowRayP4Node6float3S1_f'.
GPGPU-Sim PTX: instruction assembly for function '_Z15float2int_pow20f'...   done.
GPGPU-Sim PTX: finding reconvergence points for '_Z15float2int_pow20f'...
GPGPU-Sim PTX: Finding dominators for '_Z15float2int_pow20f'...
GPGPU-Sim PTX: Finding immediate dominators for '_Z15float2int_pow20f'...
GPGPU-Sim PTX: Finding postdominators for '_Z15float2int_pow20f'...
GPGPU-Sim PTX: Finding immediate postdominators for '_Z15float2int_pow20f'...
GPGPU-Sim PTX: pre-decoding instructions for '_Z15float2int_pow20f'...
GPGPU-Sim PTX: reconvergence points for _Z15float2int_pow20f...
GPGPU-Sim PTX: ... end of reconvergence points for _Z15float2int_pow20f
GPGPU-Sim PTX: ... done pre-decoding instructions for '_Z15float2int_pow20f'.
GPGPU-Sim PTX: instruction assembly for function '_Z15float2int_pow50f'...   done.
GPGPU-Sim PTX: finding reconvergence points for '_Z15float2int_pow50f'...
GPGPU-Sim PTX: Finding dominators for '_Z15float2int_pow50f'...
GPGPU-Sim PTX: Finding immediate dominators for '_Z15float2int_pow50f'...
GPGPU-Sim PTX: Finding postdominators for '_Z15float2int_pow50f'...
GPGPU-Sim PTX: Finding immediate postdominators for '_Z15float2int_pow50f'...
GPGPU-Sim PTX: pre-decoding instructions for '_Z15float2int_pow50f'...
GPGPU-Sim PTX: reconvergence points for _Z15float2int_pow50f...
GPGPU-Sim PTX: ... end of reconvergence points for _Z15float2int_pow50f
GPGPU-Sim PTX: ... done pre-decoding instructions for '_Z15float2int_pow50f'.
GPGPU-Sim PTX: allocating constant region for "MView" from 0x200 to 0x230 (global memory space) 1
GPGPU-Sim PTX: allocating stack frame region for .local "__cuda___cuda_local_var_35463_9_non_const_pile_32240" from 0x0 to 0x50
GPGPU-Sim PTX: instruction assembly for function '_Z6renderPjP4Nodejjff'...   done.
GPGPU-Sim PTX: finding reconvergence points for '_Z6renderPjP4Nodejjff'...
GPGPU-Sim PTX: Finding dominators for '_Z6renderPjP4Nodejjff'...
GPGPU-Sim PTX: Finding immediate dominators for '_Z6renderPjP4Nodejjff'...
GPGPU-Sim PTX: Finding postdominators for '_Z6renderPjP4Nodejjff'...
GPGPU-Sim PTX: Finding immediate postdominators for '_Z6renderPjP4Nodejjff'...
GPGPU-Sim PTX: pre-decoding instructions for '_Z6renderPjP4Nodejjff'...
GPGPU-Sim PTX: reconvergence points for _Z6renderPjP4Nodejjff...
GPGPU-Sim PTX:  1 (potential) branch divergence @  PC=0xdb0 (_1.ptx:663) @%p1 bra $Lt_10_44034;
GPGPU-Sim PTX:    immediate post dominator      @  PC=0x2370 (_1.ptx:1495) exit;
GPGPU-Sim PTX:  2 (potential) branch divergence @  PC=0x1028 (_1.ptx:751) @%p2 bra $Lt_10_45570;
GPGPU-Sim PTX:    immediate post dominator      @  PC=0x11b8 (_1.ptx:815) mov.f32 %f108, 0f00000000;   // 0
GPGPU-Sim PTX:  3 (potential) branch divergence @  PC=0x1048 (_1.ptx:756) @!%p3 bra $Lt_10_46082;
GPGPU-Sim PTX:    immediate post dominator      @  PC=0x1090 (_1.ptx:769) mov.f32 %f87, %f82;
GPGPU-Sim PTX:  4 (potential) branch divergence @  PC=0x1058 (_1.ptx:758) bra.uni $Lt_10_45826;
GPGPU-Sim PTX:    immediate post dominator      @  PC=0x1090 (_1.ptx:769) mov.f32 %f87, %f82;
GPGPU-Sim PTX:  5 (potential) branch divergence @  PC=0x1098 (_1.ptx:770) bra.uni $Lt_10_45314;
GPGPU-Sim PTX:    immediate post dominator      @  PC=0x11b8 (_1.ptx:815) mov.f32 %f108, 0f00000000;   // 0
GPGPU-Sim PTX:  6 (potential) branch divergence @  PC=0x1140 (_1.ptx:793) @%p6 bra $Lt_10_46594;
GPGPU-Sim PTX:    immediate post dominator      @  PC=0x11b0 (_1.ptx:813) mov.f32 %f87, %f101;
GPGPU-Sim PTX:  7 (potential) branch divergence @  PC=0x1150 (_1.ptx:795) bra.uni $Lt_10_46850;
GPGPU-Sim PTX:    immediate post dominator      @  PC=0x11b0 (_1.ptx:813) mov.f32 %f87, %f101;
GPGPU-Sim PTX:  8 (potential) branch divergence @  PC=0x1170 (_1.ptx:800) @!%p7 bra $Lt_10_47106;
GPGPU-Sim PTX:    immediate post dominator      @  PC=0x11b0 (_1.ptx:813) mov.f32 %f87, %f101;
GPGPU-Sim PTX:  9 (potential) branch divergence @  PC=0x1180 (_1.ptx:802) bra.uni $Lt_10_46850;
GPGPU-Sim PTX:    immediate post dominator      @  PC=0x11b0 (_1.ptx:813) mov.f32 %f87, %f101;
GPGPU-Sim PTX: 10 (potential) branch divergence @  PC=0x11f8 (_1.ptx:823) @%p8 bra $Lt_10_47362;
GPGPU-Sim PTX:    immediate post dominator      @  PC=0x1210 (_1.ptx:829) add.s32 %r25, %r25, 1;
GPGPU-Sim PTX: 11 (potential) branch divergence @  PC=0x1230 (_1.ptx:833) @%p9 bra $Lt_10_45058;
GPGPU-Sim PTX:    immediate post dominator      @  PC=0x1238 (_1.ptx:834) mov.f32 %f109, 0f00000000;   // 0
GPGPU-Sim PTX: 12 (potential) branch divergence @  PC=0x1280 (_1.ptx:843) @%p10 bra $Lt_10_48130;
GPGPU-Sim PTX:    immediate post dominator      @  PC=0x2140 (_1.ptx:1416) add.s32 %r23, %r23, 1;
GPGPU-Sim PTX: 13 (potential) branch divergence @  PC=0x1330 (_1.ptx:868) @%p11 bra $Lt_10_48898;
GPGPU-Sim PTX:    immediate post dominator      @  PC=0x13b8 (_1.ptx:888) sub.f32 %f136, %f21, %f119;
GPGPU-Sim PTX: 14 (potential) branch divergence @  PC=0x1350 (_1.ptx:873) bra.uni $Lt_10_48642;
GPGPU-Sim PTX:    immediate post dominator      @  PC=0x13b8 (_1.ptx:888) sub.f32 %f136, %f21, %f119;
GPGPU-Sim PTX: 15 (potential) branch divergence @  PC=0x1430 (_1.ptx:903) @!%p12 bra $Lt_10_49410;
GPGPU-Sim PTX:    immediate post dominator      @  PC=0x1470 (_1.ptx:915) mov.f32 %f153, 0f3d4ccccd;   // 0.05
GPGPU-Sim PTX: 16 (potential) branch divergence @  PC=0x1450 (_1.ptx:908) bra.uni $Lt_10_49154;
GPGPU-Sim PTX:    immediate post dominator      @  PC=0x1470 (_1.ptx:915) mov.f32 %f153, 0f3d4ccccd;   // 0.05
GPGPU-Sim PTX: 17 (potential) branch divergence @  PC=0x1578 (_1.ptx:949) @!%p13 bra $Lt_10_58114;
GPGPU-Sim PTX:    immediate post dominator      @  PC=0x2080 (_1.ptx:1388) add.f32 %f399, %f126, %f126;
GPGPU-Sim PTX: 18 (potential) branch divergence @  PC=0x15c0 (_1.ptx:961) @%p14 bra $Lt_10_49922;
GPGPU-Sim PTX:    immediate post dominator      @  PC=0x17b0 (_1.ptx:1039) mov.f32 %f221, 0f00000000;   // 0
GPGPU-Sim PTX: 19 (potential) branch divergence @  PC=0x15e0 (_1.ptx:966) @!%p15 bra $Lt_10_50434;
GPGPU-Sim PTX:    immediate post dominator      @  PC=0x1638 (_1.ptx:982) mov.f32 %f190, %f183;
GPGPU-Sim PTX: 20 (potential) branch divergence @  PC=0x15f0 (_1.ptx:968) bra.uni $Lt_10_50178;
GPGPU-Sim PTX:    immediate post dominator      @  PC=0x1638 (_1.ptx:982) mov.f32 %f190, %f183;
GPGPU-Sim PTX: 21 (potential) branch divergence @  PC=0x1640 (_1.ptx:983) bra.uni $Lt_10_49666;
GPGPU-Sim PTX:    immediate post dominator      @  PC=0x17b0 (_1.ptx:1039) mov.f32 %f221, 0f00000000;   // 0
GPGPU-Sim PTX: 22 (potential) branch divergence @  PC=0x1738 (_1.ptx:1016) @%p18 bra $Lt_10_50946;
GPGPU-Sim PTX:    immediate post dominator      @  PC=0x17a8 (_1.ptx:1036) mov.f32 %f190, %f214;
GPGPU-Sim PTX: 23 (potential) branch divergence @  PC=0x1748 (_1.ptx:1018) bra.uni $Lt_10_51202;
GPGPU-Sim PTX:    immediate post dominator      @  PC=0x17a8 (_1.ptx:1036) mov.f32 %f190, %f214;
GPGPU-Sim PTX: 24 (potential) branch divergence @  PC=0x1768 (_1.ptx:1023) @!%p19 bra $Lt_10_51458;
GPGPU-Sim PTX:    immediate post dominator      @  PC=0x17a8 (_1.ptx:1036) mov.f32 %f190, %f214;
GPGPU-Sim PTX: 25 (potential) branch divergence @  PC=0x1778 (_1.ptx:1025) bra.uni $Lt_10_51202;
GPGPU-Sim PTX:    immediate post dominator      @  PC=0x17a8 (_1.ptx:1036) mov.f32 %f190, %f214;
GPGPU-Sim PTX: 26 (potential) branch divergence @  PC=0x17c0 (_1.ptx:1041) @!%p20 bra $Lt_10_58370;
GPGPU-Sim PTX:    immediate post dominator      @  PC=0x1828 (_1.ptx:1057) add.s32 %r50, %r50, 1;
GPGPU-Sim PTX: 27 (potential) branch divergence @  PC=0x1818 (_1.ptx:1052) @!%p21 bra $Lt_10_58370;
GPGPU-Sim PTX:    immediate post dominator      @  PC=0x1828 (_1.ptx:1057) add.s32 %r50, %r50, 1;
GPGPU-Sim PTX: 28 (potential) branch divergence @  PC=0x1848 (_1.ptx:1061) @%p22 bra $Lt_10_58882;
GPGPU-Sim PTX:    immediate post dominator      @  PC=0x1880 (_1.ptx:1071) @!%p23 bra $Lt_10_58114;
GPGPU-Sim PTX: 29 (potential) branch divergence @  PC=0x1860 (_1.ptx:1064) @%p23 bra $L_10_42498;
GPGPU-Sim PTX:    immediate post dominator      @  PC=0x1880 (_1.ptx:1071) @!%p23 bra $Lt_10_58114;
GPGPU-Sim PTX: 30 (potential) branch divergence @  PC=0x1868 (_1.ptx:1065) bra.uni $L_10_43266;
GPGPU-Sim PTX:    immediate post dominator      @  PC=0x1880 (_1.ptx:1071) @!%p23 bra $Lt_10_58114;
GPGPU-Sim PTX: 31 (potential) branch divergence @  PC=0x1880 (_1.ptx:1071) @!%p23 bra $Lt_10_58114;
GPGPU-Sim PTX:    immediate post dominator      @  PC=0x2080 (_1.ptx:1388) add.f32 %f399, %f126, %f126;
GPGPU-Sim PTX: 32 (potential) branch divergence @  PC=0x19c8 (_1.ptx:1115) @!%p24 bra $Lt_10_51714;
GPGPU-Sim PTX:    immediate post dominator      @  PC=0x2040 (_1.ptx:1375) mov.f32 %f394, 0f3f4ccccd;   // 0.8
GPGPU-Sim PTX: 33 (potential) branch divergence @  PC=0x19d8 (_1.ptx:1118) bra.uni $LDWendi___isnanf_192_1;
GPGPU-Sim PTX:    immediate post dominator      @  PC=0x2040 (_1.ptx:1375) mov.f32 %f394, 0f3f4ccccd;   // 0.8
GPGPU-Sim PTX: 34 (potential) branch divergence @  PC=0x19f8 (_1.ptx:1124) @!%p25 bra $Lt_10_7682;
GPGPU-Sim PTX:    immediate post dominator      @  PC=0x2040 (_1.ptx:1375) mov.f32 %f394, 0f3f4ccccd;   // 0.8
GPGPU-Sim PTX: 35 (potential) branch divergence @  PC=0x1a00 (_1.ptx:1125) bra.uni $Lt_10_7938;
GPGPU-Sim PTX:    immediate post dominator      @  PC=0x1a20 (_1.ptx:1133) mov.f32 %f272, 0f7f800000;   // ((1.0F)/(0.0F))
GPGPU-Sim PTX: 36 (potential) branch divergence @  PC=0x1a18 (_1.ptx:1130) bra.uni $LDWendi___isnanf_192_1;
GPGPU-Sim PTX:    immediate post dominator      @  PC=0x2040 (_1.ptx:1375) mov.f32 %f394, 0f3f4ccccd;   // 0.8
GPGPU-Sim PTX: 37 (potential) branch divergence @  PC=0x1a30 (_1.ptx:1135) @!%p26 bra $Lt_10_52226;
GPGPU-Sim PTX:    immediate post dominator      @  PC=0x2040 (_1.ptx:1375) mov.f32 %f394, 0f3f4ccccd;   // 0.8
GPGPU-Sim PTX: 38 (potential) branch divergence @  PC=0x1a40 (_1.ptx:1138) bra.uni $LDWendi___isnanf_192_1;
GPGPU-Sim PTX:    immediate post dominator      @  PC=0x2040 (_1.ptx:1375) mov.f32 %f394, 0f3f4ccccd;   // 0.8
GPGPU-Sim PTX: 39 (potential) branch divergence @  PC=0x1a58 (_1.ptx:1142) @!%p27 bra $Lt_10_52738;
GPGPU-Sim PTX:    immediate post dominator      @  PC=0x2040 (_1.ptx:1375) mov.f32 %f394, 0f3f4ccccd;   // 0.8
GPGPU-Sim PTX: 40 (potential) branch divergence @  PC=0x1ab8 (_1.ptx:1155) bra.uni $LDWendi___isnanf_192_1;
GPGPU-Sim PTX:    immediate post dominator      @  PC=0x2040 (_1.ptx:1375) mov.f32 %f394, 0f3f4ccccd;   // 0.8
GPGPU-Sim PTX: 41 (potential) branch divergence @  PC=0x1ad0 (_1.ptx:1159) @!%p29 bra $Lt_10_53250;
GPGPU-Sim PTX:    immediate post dominator      @  PC=0x2040 (_1.ptx:1375) mov.f32 %f394, 0f3f4ccccd;   // 0.8
GPGPU-Sim PTX: 42 (potential) branch divergence @  PC=0x1b20 (_1.ptx:1170) @!%p30 bra $Lt_10_53762;
GPGPU-Sim PTX:    immediate post dominator      @  PC=0x1b40 (_1.ptx:1177) mov.f32 %f268, %f284;
GPGPU-Sim PTX: 43 (potential) branch divergence @  PC=0x1b48 (_1.ptx:1178) bra.uni $LDWendi___isnanf_192_1;
GPGPU-Sim PTX:    immediate post dominator      @  PC=0x2040 (_1.ptx:1375) mov.f32 %f394, 0f3f4ccccd;   // 0.8
GPGPU-Sim PTX: 44 (potential) branch divergence @  PC=0x1b60 (_1.ptx:1183) @!%p31 bra $Lt_10_59394;
GPGPU-Sim PTX:    immediate post dominator      @  PC=0x2040 (_1.ptx:1375) mov.f32 %f394, 0f3f4ccccd;   // 0.8
GPGPU-Sim PTX: 45 (potential) branch divergence @  PC=0x1b88 (_1.ptx:1188) @!%p32 bra $Lt_10_59394;
GPGPU-Sim PTX:    immediate post dominator      @  PC=0x2040 (_1.ptx:1375) mov.f32 %f394, 0f3f4ccccd;   // 0.8
GPGPU-Sim PTX: 46 (potential) branch divergence @  PC=0x1ba0 (_1.ptx:1192) bra.uni $LDWendi___isnanf_192_1;
GPGPU-Sim PTX:    immediate post dominator      @  PC=0x2040 (_1.ptx:1375) mov.f32 %f394, 0f3f4ccccd;   // 0.8
GPGPU-Sim PTX: 47 (potential) branch divergence @  PC=0x1bd8 (_1.ptx:1202) @%p33 bra $Lt_10_54530;
GPGPU-Sim PTX:    immediate post dominator      @  PC=0x1c20 (_1.ptx:1216) sub.s32 %r64, %r64, 127;
GPGPU-Sim PTX: 48 (potential) branch divergence @  PC=0x1c10 (_1.ptx:1211) bra.uni $Lt_10_54274;
GPGPU-Sim PTX:    immediate post dominator      @  PC=0x1c20 (_1.ptx:1216) sub.s32 %r64, %r64, 127;
GPGPU-Sim PTX: 49 (potential) branch divergence @  PC=0x1c58 (_1.ptx:1224) @!%p34 bra $Lt_10_54786;
GPGPU-Sim PTX:    immediate post dominator      @  PC=0x1c78 (_1.ptx:1232) mov.f32 %f302, 0fbf800000;   // -1
GPGPU-Sim PTX: 50 (potential) branch divergence @  PC=0x1eb0 (_1.ptx:1312) @%p35 bra $Lt_10_55298;
GPGPU-Sim PTX:    immediate post dominator      @  PC=0x1ed8 (_1.ptx:1321) mov.f32 %f367, %f365;
GPGPU-Sim PTX: 51 (potential) branch divergence @  PC=0x1f98 (_1.ptx:1346) @!%p38 bra $Lt_10_55810;
GPGPU-Sim PTX:    immediate post dominator      @  PC=0x1fa8 (_1.ptx:1351) mov.f32 %f284, %f386;
GPGPU-Sim PTX: 52 (potential) branch divergence @  PC=0x2018 (_1.ptx:1365) @%p39 bra $Lt_10_56322;
GPGPU-Sim PTX:    immediate post dominator      @  PC=0x2038 (_1.ptx:1372) mov.f32 %f268, %f284;
GPGPU-Sim PTX: 53 (potential) branch divergence @  PC=0x2158 (_1.ptx:1419) @%p40 bra $L_10_42242;
GPGPU-Sim PTX:    immediate post dominator      @  PC=0x2170 (_1.ptx:1424) sub.s32 %r86, %r24, 1;
GPGPU-Sim PTX: 54 (potential) branch divergence @  PC=0x2168 (_1.ptx:1421) @%p41 bra $L_10_41474;
GPGPU-Sim PTX:    immediate post dominator      @  PC=0x2170 (_1.ptx:1424) sub.s32 %r86, %r24, 1;
GPGPU-Sim PTX: 55 (potential) branch divergence @  PC=0x2190 (_1.ptx:1428) @%p42 bra $Lt_10_56834;
GPGPU-Sim PTX:    immediate post dominator      @  PC=0x2288 (_1.ptx:1464) ld.global.u32 %r92, [%rd4+0];
GPGPU-Sim PTX: 56 (potential) branch divergence @  PC=0x2280 (_1.ptx:1461) @%p43 bra $Lt_10_57346;
GPGPU-Sim PTX:    immediate post dominator      @  PC=0x2288 (_1.ptx:1464) ld.global.u32 %r92, [%rd4+0];
GPGPU-Sim PTX: ... end of reconvergence points for _Z6renderPjP4Nodejjff
GPGPU-Sim PTX: ... done pre-decoding instructions for '_Z6renderPjP4Nodejjff'.
GPGPU-Sim PTX: instruction assembly for function '_ZN4dim3C1Ejjj'...   done.
GPGPU-Sim PTX: finding reconvergence points for '_ZN4dim3C1Ejjj'...
GPGPU-Sim PTX: Finding dominators for '_ZN4dim3C1Ejjj'...
GPGPU-Sim PTX: Finding immediate dominators for '_ZN4dim3C1Ejjj'...
GPGPU-Sim PTX: Finding postdominators for '_ZN4dim3C1Ejjj'...
GPGPU-Sim PTX: Finding immediate postdominators for '_ZN4dim3C1Ejjj'...
GPGPU-Sim PTX: pre-decoding instructions for '_ZN4dim3C1Ejjj'...
GPGPU-Sim PTX: reconvergence points for _ZN4dim3C1Ejjj...
GPGPU-Sim PTX: ... end of reconvergence points for _ZN4dim3C1Ejjj
GPGPU-Sim PTX: ... done pre-decoding instructions for '_ZN4dim3C1Ejjj'.
GPGPU-Sim PTX: finished parsing EMBEDDED .ptx file _1.ptx
Adding _cuobjdump_1.ptx with cubin handle 1
GPGPU-Sim PTX: extracting embedded .ptx to temporary file "_ptx_ZIYg7u"
Running: cat _ptx_ZIYg7u | sed 's/.version 1.5/.version 1.4/' | sed 's/, texmode_independent//' | sed 's/\(\.extern \.const\[1\] .b8 \w\+\)\[\]/\1\[1\]/' | sed 's/const\[.\]/const\[0\]/g' > _ptx2_vzqxOK
GPGPU-Sim PTX: generating ptxinfo using "$CUDA_INSTALL_PATH/bin/ptxas --gpu-name=sm_20 -v _ptx2_vzqxOK --output-file  /dev/null 2> _ptx_ZIYg7uinfo"
GPGPU-Sim PTX: Kernel '_Z6renderPjP4Nodejjff' : regs=45, lmem=4, smem=0, cmem=180
GPGPU-Sim PTX: removing ptxinfo using "rm -f _ptx_ZIYg7u _ptx2_vzqxOK _ptx_ZIYg7uinfo"
GPGPU-Sim PTX: loading globals with explicit initializers... 
GPGPU-Sim PTX: finished loading globals (0 bytes total).
GPGPU-Sim PTX: loading constants with explicit initializers...  done.
GPGPU-Sim PTX: __cudaRegisterVar: hostVar = 0x62fda0; deviceAddress = MView; deviceName = MView
GPGPU-Sim PTX: __cudaRegisterVar: Registering const memory space of 48 bytes
GPGPU-Sim PTX registering constant MView (48 bytes) to name mapping
GPGPU-Sim PTX: __cudaRegisterVar: hostVar = 0x62fde0; deviceAddress = cnode; deviceName = cnode
GPGPU-Sim PTX: __cudaRegisterVar: Registering const memory space of 160 bytes
GPGPU-Sim PTX registering constant cnode (160 bytes) to name mapping
GPGPU-Sim PTX: cudaMemcpyToSymbol: symbol = 0x62fde0
GPGPU-Sim PTX: starting gpgpu_ptx_sim_memcpy_symbol with hostVar 0x0x62fde0
GPGPU-Sim PTX: gpgpu_ptx_sim_memcpy_symbol: Found PTX symbol w/ hostVar=0x62fde0
GPGPU-Sim PTX: gpgpu_ptx_sim_memcpy_symbol: copying const memory 160 bytes  to  symbol cnode+0 @0x100 ...
GPGPU-Sim PTX: cudaMemcpyToSymbol: symbol = 0x62fda0
GPGPU-Sim PTX: starting gpgpu_ptx_sim_memcpy_symbol with hostVar 0x0x62fda0
GPGPU-Sim PTX: gpgpu_ptx_sim_memcpy_symbol: Found PTX symbol w/ hostVar=0x62fda0
GPGPU-Sim PTX: gpgpu_ptx_sim_memcpy_symbol: copying const memory 48 bytes  to  symbol MView+0 @0x200 ...

GPGPU-Sim PTX: cudaLaunch for 0x0x40ce13 (mode=performance simulation) on stream 0
GPGPU-Sim PTX: pushing kernel '_Z6renderPjP4Nodejjff' to stream 0, gridDim= (16,32,1) blockDim = (16,8,1) 
kernel '_Z6renderPjP4Nodejjff' transfer to GPU hardware scheduler
GPGPU-Sim uArch: Shader 1 bind to kernel 1 '_Z6renderPjP4Nodejjff'
GPGPU-Sim uArch: CTA/core = 5, limited by: regs
GPGPU-Sim uArch: core:  1, cta: 0 initialized @(1,0)
GPGPU-Sim uArch: Shader 2 bind to kernel 1 '_Z6renderPjP4Nodejjff'
GPGPU-Sim uArch: core:  2, cta: 0 initialized @(1,0)
GPGPU-Sim uArch: Shader 3 bind to kernel 1 '_Z6renderPjP4Nodejjff'
GPGPU-Sim uArch: core:  3, cta: 0 initialized @(1,0)
GPGPU-Sim uArch: Shader 4 bind to kernel 1 '_Z6renderPjP4Nodejjff'
GPGPU-Sim uArch: core:  4, cta: 0 initialized @(1,0)
GPGPU-Sim uArch: Shader 5 bind to kernel 1 '_Z6renderPjP4Nodejjff'
GPGPU-Sim uArch: core:  5, cta: 0 initialized @(1,0)
GPGPU-Sim uArch: Shader 6 bind to kernel 1 '_Z6renderPjP4Nodejjff'
GPGPU-Sim uArch: core:  6, cta: 0 initialized @(1,0)
GPGPU-Sim uArch: Shader 7 bind to kernel 1 '_Z6renderPjP4Nodejjff'
GPGPU-Sim uArch: core:  7, cta: 0 initialized @(1,0)
GPGPU-Sim uArch: Shader 8 bind to kernel 1 '_Z6renderPjP4Nodejjff'
GPGPU-Sim uArch: core:  8, cta: 0 initialized @(1,0)
GPGPU-Sim uArch: Shader 9 bind to kernel 1 '_Z6renderPjP4Nodejjff'
GPGPU-Sim uArch: core:  9, cta: 0 initialized @(1,0)
GPGPU-Sim uArch: Shader 10 bind to kernel 1 '_Z6renderPjP4Nodejjff'
GPGPU-Sim uArch: core: 10, cta: 0 initialized @(1,0)
GPGPU-Sim uArch: Shader 11 bind to kernel 1 '_Z6renderPjP4Nodejjff'
GPGPU-Sim uArch: core: 11, cta: 0 initialized @(1,0)
GPGPU-Sim uArch: Shader 12 bind to kernel 1 '_Z6renderPjP4Nodejjff'
GPGPU-Sim uArch: core: 12, cta: 0 initialized @(1,0)
GPGPU-Sim uArch: Shader 13 bind to kernel 1 '_Z6renderPjP4Nodejjff'
GPGPU-Sim uArch: core: 13, cta: 0 initialized @(1,0)
GPGPU-Sim uArch: Shader 14 bind to kernel 1 '_Z6renderPjP4Nodejjff'
GPGPU-Sim uArch: core: 14, cta: 0 initialized @(1,0)
GPGPU-Sim uArch: Shader 0 bind to kernel 1 '_Z6renderPjP4Nodejjff'
GPGPU-Sim uArch: core:  0, cta: 0 initialized @(1,0)
GPGPU-Sim uArch: core:  1, cta: 1 initialized @(2,0)
GPGPU-Sim uArch: core:  2, cta: 1 initialized @(2,0)
GPGPU-Sim uArch: core:  3, cta: 1 initialized @(2,0)
GPGPU-Sim uArch: core:  4, cta: 1 initialized @(2,0)
GPGPU-Sim uArch: core:  5, cta: 1 initialized @(2,0)
GPGPU-Sim uArch: core:  6, cta: 1 initialized @(2,0)
GPGPU-Sim uArch: core:  7, cta: 1 initialized @(2,0)
GPGPU-Sim uArch: core:  8, cta: 1 initialized @(2,0)
GPGPU-Sim uArch: core:  9, cta: 1 initialized @(2,0)
GPGPU-Sim uArch: core: 10, cta: 1 initialized @(2,0)
GPGPU-Sim uArch: core: 11, cta: 1 initialized @(2,0)
GPGPU-Sim uArch: core: 12, cta: 1 initialized @(2,0)
GPGPU-Sim uArch: core: 13, cta: 1 initialized @(2,0)
GPGPU-Sim uArch: core: 14, cta: 1 initialized @(2,0)
GPGPU-Sim uArch: core:  0, cta: 1 initialized @(2,0)
GPGPU-Sim uArch: core:  1, cta: 2 initialized @(3,0)
GPGPU-Sim uArch: core:  2, cta: 2 initialized @(3,0)
GPGPU-Sim uArch: core:  3, cta: 2 initialized @(3,0)
GPGPU-Sim uArch: core:  4, cta: 2 initialized @(3,0)
GPGPU-Sim uArch: core:  5, cta: 2 initialized @(3,0)
GPGPU-Sim uArch: core:  6, cta: 2 initialized @(3,0)
GPGPU-Sim uArch: core:  7, cta: 2 initialized @(3,0)
GPGPU-Sim uArch: core:  8, cta: 2 initialized @(3,0)
GPGPU-Sim uArch: core:  9, cta: 2 initialized @(3,0)
GPGPU-Sim uArch: core: 10, cta: 2 initialized @(3,0)
GPGPU-Sim uArch: core: 11, cta: 2 initialized @(3,0)
GPGPU-Sim uArch: core: 12, cta: 2 initialized @(3,0)
GPGPU-Sim uArch: core: 13, cta: 2 initialized @(3,0)
GPGPU-Sim uArch: core: 14, cta: 2 initialized @(3,0)
GPGPU-Sim uArch: core:  0, cta: 2 initialized @(3,0)
GPGPU-Sim uArch: core:  1, cta: 3 initialized @(4,0)
GPGPU-Sim uArch: core:  2, cta: 3 initialized @(4,0)
GPGPU-Sim uArch: core:  3, cta: 3 initialized @(4,0)
GPGPU-Sim uArch: core:  4, cta: 3 initialized @(4,0)
GPGPU-Sim uArch: core:  5, cta: 3 initialized @(4,0)
GPGPU-Sim uArch: core:  6, cta: 3 initialized @(4,0)
GPGPU-Sim uArch: core:  7, cta: 3 initialized @(4,0)
GPGPU-Sim uArch: core:  8, cta: 3 initialized @(4,0)
GPGPU-Sim uArch: core:  9, cta: 3 initialized @(4,0)
GPGPU-Sim uArch: core: 10, cta: 3 initialized @(4,0)
GPGPU-Sim uArch: core: 11, cta: 3 initialized @(4,0)
GPGPU-Sim uArch: core: 12, cta: 3 initialized @(4,0)
GPGPU-Sim uArch: core: 13, cta: 3 initialized @(4,0)
GPGPU-Sim uArch: core: 14, cta: 3 initialized @(4,0)
GPGPU-Sim uArch: core:  0, cta: 3 initialized @(4,0)
GPGPU-Sim uArch: core:  1, cta: 4 initialized @(5,0)
GPGPU-Sim uArch: core:  2, cta: 4 initialized @(5,0)
GPGPU-Sim uArch: core:  3, cta: 4 initialized @(5,0)
GPGPU-Sim uArch: core:  4, cta: 4 initialized @(5,0)
GPGPU-Sim uArch: core:  5, cta: 4 initialized @(5,0)
GPGPU-Sim uArch: core:  6, cta: 4 initialized @(5,0)
GPGPU-Sim uArch: core:  7, cta: 4 initialized @(5,0)
GPGPU-Sim uArch: core:  8, cta: 4 initialized @(5,0)
GPGPU-Sim uArch: core:  9, cta: 4 initialized @(5,0)
GPGPU-Sim uArch: core: 10, cta: 4 initialized @(5,0)
GPGPU-Sim uArch: core: 11, cta: 4 initialized @(5,0)
GPGPU-Sim uArch: core: 12, cta: 4 initialized @(5,0)
GPGPU-Sim uArch: core: 13, cta: 4 initialized @(5,0)
GPGPU-Sim uArch: core: 14, cta: 4 initialized @(5,0)
GPGPU-Sim uArch: core:  0, cta: 4 initialized @(5,0)
GPGPU-Sim uArch: cycles simulated: 500  inst.: 35872 (ipc=71.7) sim_rate=35872 (inst/sec) elapsed = 0:0:00:01 / Wed Mar  2 01:13:24 2016
GPGPU-Sim uArch: cycles simulated: 1000  inst.: 55264 (ipc=55.3) sim_rate=27632 (inst/sec) elapsed = 0:0:00:02 / Wed Mar  2 01:13:25 2016
GPGPU-Sim PTX: 100000 instructions simulated : ctaid=(0,1,0) tid=(15,1,0)
GPGPU-Sim uArch: cycles simulated: 4000  inst.: 113600 (ipc=28.4) sim_rate=37866 (inst/sec) elapsed = 0:0:00:03 / Wed Mar  2 01:13:26 2016
GPGPU-Sim PTX: 200000 instructions simulated : ctaid=(11,0,0) tid=(15,5,0)
GPGPU-Sim uArch: cycles simulated: 6500  inst.: 232384 (ipc=35.8) sim_rate=58096 (inst/sec) elapsed = 0:0:00:04 / Wed Mar  2 01:13:27 2016
GPGPU-Sim PTX: 300000 instructions simulated : ctaid=(0,2,0) tid=(15,1,0)
GPGPU-Sim PTX: 400000 instructions simulated : ctaid=(7,1,0) tid=(15,1,0)
GPGPU-Sim uArch: cycles simulated: 9500  inst.: 402592 (ipc=42.4) sim_rate=80518 (inst/sec) elapsed = 0:0:00:05 / Wed Mar  2 01:13:28 2016
GPGPU-Sim PTX: 500000 instructions simulated : ctaid=(8,0,0) tid=(15,1,0)
GPGPU-Sim PTX: 600000 instructions simulated : ctaid=(15,1,0) tid=(15,1,0)
GPGPU-Sim uArch: cycles simulated: 11500  inst.: 651392 (ipc=56.6) sim_rate=108565 (inst/sec) elapsed = 0:0:00:06 / Wed Mar  2 01:13:29 2016
GPGPU-Sim PTX: 700000 instructions simulated : ctaid=(14,0,0) tid=(15,7,0)
GPGPU-Sim PTX: 800000 instructions simulated : ctaid=(1,4,0) tid=(15,5,0)
GPGPU-Sim PTX: 900000 instructions simulated : ctaid=(15,1,0) tid=(15,7,0)
GPGPU-Sim uArch: cycles simulated: 13500  inst.: 944640 (ipc=70.0) sim_rate=134948 (inst/sec) elapsed = 0:0:00:07 / Wed Mar  2 01:13:30 2016
GPGPU-Sim PTX: 1000000 instructions simulated : ctaid=(9,0,0) tid=(15,1,0)
GPGPU-Sim PTX: 1100000 instructions simulated : ctaid=(12,3,0) tid=(15,3,0)
GPGPU-Sim PTX: 1200000 instructions simulated : ctaid=(1,0,0) tid=(15,1,0)
GPGPU-Sim PTX: 1300000 instructions simulated : ctaid=(1,0,0) tid=(15,1,0)
GPGPU-Sim PTX: 1400000 instructions simulated : ctaid=(15,3,0) tid=(15,3,0)
GPGPU-Sim uArch: cycles simulated: 15500  inst.: 1416128 (ipc=91.4) sim_rate=177016 (inst/sec) elapsed = 0:0:00:08 / Wed Mar  2 01:13:31 2016
GPGPU-Sim PTX: 1500000 instructions simulated : ctaid=(6,2,0) tid=(15,7,0)
GPGPU-Sim PTX: 1600000 instructions simulated : ctaid=(15,0,0) tid=(15,3,0)
GPGPU-Sim PTX: 1700000 instructions simulated : ctaid=(4,2,0) tid=(15,1,0)
GPGPU-Sim PTX: 1800000 instructions simulated : ctaid=(15,0,0) tid=(15,5,0)
GPGPU-Sim PTX: 1900000 instructions simulated : ctaid=(13,1,0) tid=(15,3,0)
GPGPU-Sim PTX: 2000000 instructions simulated : ctaid=(8,2,0) tid=(15,7,0)
GPGPU-Sim uArch: cycles simulated: 16500  inst.: 1979008 (ipc=119.9) sim_rate=219889 (inst/sec) elapsed = 0:0:00:09 / Wed Mar  2 01:13:32 2016
GPGPU-Sim PTX: 2100000 instructions simulated : ctaid=(1,3,0) tid=(15,7,0)
GPGPU-Sim PTX: 2200000 instructions simulated : ctaid=(11,1,0) tid=(15,1,0)
GPGPU-Sim PTX: 2300000 instructions simulated : ctaid=(8,4,0) tid=(15,5,0)
GPGPU-Sim PTX: 2400000 instructions simulated : ctaid=(2,2,0) tid=(15,3,0)
GPGPU-Sim PTX: 2500000 instructions simulated : ctaid=(13,1,0) tid=(15,3,0)
GPGPU-Sim PTX: 2600000 instructions simulated : ctaid=(9,2,0) tid=(15,7,0)
GPGPU-Sim PTX: 2700000 instructions simulated : ctaid=(14,0,0) tid=(15,5,0)
GPGPU-Sim PTX: 2800000 instructions simulated : ctaid=(9,2,0) tid=(15,5,0)
GPGPU-Sim uArch: cycles simulated: 18000  inst.: 2820544 (ipc=156.7) sim_rate=282054 (inst/sec) elapsed = 0:0:00:10 / Wed Mar  2 01:13:33 2016
GPGPU-Sim PTX: 2900000 instructions simulated : ctaid=(8,4,0) tid=(15,5,0)
GPGPU-Sim PTX: 3000000 instructions simulated : ctaid=(4,4,0) tid=(15,7,0)
GPGPU-Sim PTX: 3100000 instructions simulated : ctaid=(8,4,0) tid=(15,5,0)
GPGPU-Sim PTX: 3200000 instructions simulated : ctaid=(12,0,0) tid=(15,5,0)
GPGPU-Sim PTX: 3300000 instructions simulated : ctaid=(10,3,0) tid=(15,7,0)
GPGPU-Sim PTX: 3400000 instructions simulated : ctaid=(3,4,0) tid=(15,1,0)
GPGPU-Sim uArch: cycles simulated: 19000  inst.: 3363808 (ipc=177.0) sim_rate=305800 (inst/sec) elapsed = 0:0:00:11 / Wed Mar  2 01:13:34 2016
GPGPU-Sim PTX: 3500000 instructions simulated : ctaid=(6,1,0) tid=(15,5,0)
GPGPU-Sim PTX: 3600000 instructions simulated : ctaid=(13,2,0) tid=(15,5,0)
GPGPU-Sim PTX: 3700000 instructions simulated : ctaid=(6,1,0) tid=(15,5,0)
GPGPU-Sim PTX: 3800000 instructions simulated : ctaid=(8,1,0) tid=(15,7,0)
GPGPU-Sim PTX: 3900000 instructions simulated : ctaid=(2,0,0) tid=(15,3,0)
GPGPU-Sim PTX: 4000000 instructions simulated : ctaid=(2,4,0) tid=(15,5,0)
GPGPU-Sim uArch: cycles simulated: 20500  inst.: 3927104 (ipc=191.6) sim_rate=327258 (inst/sec) elapsed = 0:0:00:12 / Wed Mar  2 01:13:35 2016
GPGPU-Sim PTX: 4100000 instructions simulated : ctaid=(0,4,0) tid=(15,7,0)
GPGPU-Sim PTX: 4200000 instructions simulated : ctaid=(9,2,0) tid=(15,3,0)
GPGPU-Sim PTX: 4300000 instructions simulated : ctaid=(2,2,0) tid=(15,5,0)
GPGPU-Sim PTX: 4400000 instructions simulated : ctaid=(3,0,0) tid=(15,7,0)
GPGPU-Sim PTX: 4500000 instructions simulated : ctaid=(0,4,0) tid=(15,3,0)
GPGPU-Sim uArch: cycles simulated: 22000  inst.: 4406400 (ipc=200.3) sim_rate=338953 (inst/sec) elapsed = 0:0:00:13 / Wed Mar  2 01:13:36 2016
GPGPU-Sim PTX: 4600000 instructions simulated : ctaid=(1,4,0) tid=(8,7,0)
GPGPU-Sim PTX: 4700000 instructions simulated : ctaid=(15,3,0) tid=(6,0,0)
GPGPU-Sim PTX: 4800000 instructions simulated : ctaid=(15,0,0) tid=(15,0,0)
GPGPU-Sim PTX: 4900000 instructions simulated : ctaid=(0,2,0) tid=(15,4,0)
GPGPU-Sim PTX: 5000000 instructions simulated : ctaid=(10,2,0) tid=(15,2,0)
GPGPU-Sim PTX: 5100000 instructions simulated : ctaid=(14,2,0) tid=(15,0,0)
GPGPU-Sim PTX: 5200000 instructions simulated : ctaid=(12,3,0) tid=(15,0,0)
GPGPU-Sim uArch: cycles simulated: 23000  inst.: 5138384 (ipc=223.4) sim_rate=367027 (inst/sec) elapsed = 0:0:00:14 / Wed Mar  2 01:13:37 2016
GPGPU-Sim PTX: 5300000 instructions simulated : ctaid=(11,1,0) tid=(15,2,0)
GPGPU-Sim PTX: 5400000 instructions simulated : ctaid=(13,1,0) tid=(1,4,0)
GPGPU-Sim PTX: 5500000 instructions simulated : ctaid=(11,1,0) tid=(9,7,0)
GPGPU-Sim PTX: 5600000 instructions simulated : ctaid=(1,3,0) tid=(0,7,0)
GPGPU-Sim PTX: 5700000 instructions simulated : ctaid=(3,0,0) tid=(15,7,0)
GPGPU-Sim PTX: 5800000 instructions simulated : ctaid=(7,4,0) tid=(15,2,0)
GPGPU-Sim PTX: 5900000 instructions simulated : ctaid=(10,2,0) tid=(11,1,0)
GPGPU-Sim PTX: 6000000 instructions simulated : ctaid=(4,4,0) tid=(15,2,0)
GPGPU-Sim uArch: cycles simulated: 24000  inst.: 5825968 (ipc=242.7) sim_rate=388397 (inst/sec) elapsed = 0:0:00:15 / Wed Mar  2 01:13:38 2016
GPGPU-Sim PTX: 6100000 instructions simulated : ctaid=(10,0,0) tid=(11,3,0)
GPGPU-Sim PTX: 6200000 instructions simulated : ctaid=(4,4,0) tid=(11,5,0)
GPGPU-Sim PTX: 6300000 instructions simulated : ctaid=(13,0,0) tid=(11,5,0)
GPGPU-Sim PTX: 6400000 instructions simulated : ctaid=(10,4,0) tid=(11,7,0)
GPGPU-Sim uArch: cycles simulated: 26000  inst.: 6240292 (ipc=240.0) sim_rate=390018 (inst/sec) elapsed = 0:0:00:16 / Wed Mar  2 01:13:39 2016
GPGPU-Sim PTX: 6500000 instructions simulated : ctaid=(3,3,0) tid=(15,6,0)
GPGPU-Sim PTX: 6600000 instructions simulated : ctaid=(6,1,0) tid=(11,3,0)
GPGPU-Sim PTX: 6700000 instructions simulated : ctaid=(7,2,0) tid=(11,3,0)
GPGPU-Sim PTX: 6800000 instructions simulated : ctaid=(4,2,0) tid=(11,7,0)
GPGPU-Sim PTX: 6900000 instructions simulated : ctaid=(13,2,0) tid=(11,1,0)
GPGPU-Sim uArch: cycles simulated: 27500  inst.: 6810436 (ipc=247.7) sim_rate=400613 (inst/sec) elapsed = 0:0:00:17 / Wed Mar  2 01:13:40 2016
GPGPU-Sim PTX: 7000000 instructions simulated : ctaid=(10,2,0) tid=(11,5,0)
GPGPU-Sim PTX: 7100000 instructions simulated : ctaid=(13,3,0) tid=(11,1,0)
GPGPU-Sim PTX: 7200000 instructions simulated : ctaid=(12,1,0) tid=(11,7,0)
GPGPU-Sim PTX: 7300000 instructions simulated : ctaid=(12,2,0) tid=(11,1,0)
GPGPU-Sim PTX: 7400000 instructions simulated : ctaid=(9,4,0) tid=(11,7,0)
GPGPU-Sim PTX: 7500000 instructions simulated : ctaid=(4,2,0) tid=(11,5,0)
GPGPU-Sim uArch: cycles simulated: 29000  inst.: 7332196 (ipc=252.8) sim_rate=407344 (inst/sec) elapsed = 0:0:00:18 / Wed Mar  2 01:13:41 2016
GPGPU-Sim PTX: 7600000 instructions simulated : ctaid=(10,2,0) tid=(11,1,0)
GPGPU-Sim PTX: 7700000 instructions simulated : ctaid=(6,2,0) tid=(11,1,0)
GPGPU-Sim PTX: 7800000 instructions simulated : ctaid=(6,2,0) tid=(11,5,0)
GPGPU-Sim PTX: 7900000 instructions simulated : ctaid=(10,2,0) tid=(11,3,0)
GPGPU-Sim PTX: 8000000 instructions simulated : ctaid=(5,4,0) tid=(11,5,0)
GPGPU-Sim uArch: cycles simulated: 30500  inst.: 7828228 (ipc=256.7) sim_rate=412012 (inst/sec) elapsed = 0:0:00:19 / Wed Mar  2 01:13:42 2016
GPGPU-Sim PTX: 8100000 instructions simulated : ctaid=(10,4,0) tid=(11,7,0)
GPGPU-Sim PTX: 8200000 instructions simulated : ctaid=(9,4,0) tid=(11,3,0)
GPGPU-Sim PTX: 8300000 instructions simulated : ctaid=(5,3,0) tid=(11,1,0)
GPGPU-Sim PTX: 8400000 instructions simulated : ctaid=(0,1,0) tid=(11,5,0)
GPGPU-Sim PTX: 8500000 instructions simulated : ctaid=(13,0,0) tid=(11,5,0)
GPGPU-Sim PTX: 8600000 instructions simulated : ctaid=(2,3,0) tid=(11,1,0)
GPGPU-Sim PTX: 8700000 instructions simulated : ctaid=(0,3,0) tid=(15,4,0)
GPGPU-Sim PTX: 8800000 instructions simulated : ctaid=(7,4,0) tid=(11,2,0)
GPGPU-Sim uArch: cycles simulated: 32000  inst.: 8655908 (ipc=270.5) sim_rate=432795 (inst/sec) elapsed = 0:0:00:20 / Wed Mar  2 01:13:43 2016
GPGPU-Sim PTX: 8900000 instructions simulated : ctaid=(14,1,0) tid=(11,1,0)
GPGPU-Sim PTX: 9000000 instructions simulated : ctaid=(10,4,0) tid=(8,1,0)
GPGPU-Sim PTX: 9100000 instructions simulated : ctaid=(2,1,0) tid=(12,5,0)
GPGPU-Sim PTX: 9200000 instructions simulated : ctaid=(10,4,0) tid=(1,7,0)
GPGPU-Sim PTX: 9300000 instructions simulated : ctaid=(1,2,0) tid=(13,7,0)
GPGPU-Sim PTX: 9400000 instructions simulated : ctaid=(13,0,0) tid=(0,3,0)
GPGPU-Sim PTX: 9500000 instructions simulated : ctaid=(10,1,0) tid=(12,0,0)
GPGPU-Sim PTX: 9600000 instructions simulated : ctaid=(2,4,0) tid=(14,1,0)
GPGPU-Sim PTX: 9700000 instructions simulated : ctaid=(9,1,0) tid=(1,6,0)
GPGPU-Sim uArch: cycles simulated: 33000  inst.: 9453560 (ipc=286.5) sim_rate=450169 (inst/sec) elapsed = 0:0:00:21 / Wed Mar  2 01:13:44 2016
GPGPU-Sim PTX: 9800000 instructions simulated : ctaid=(5,3,0) tid=(10,5,0)
GPGPU-Sim PTX: 9900000 instructions simulated : ctaid=(2,2,0) tid=(5,1,0)
GPGPU-Sim PTX: 10000000 instructions simulated : ctaid=(8,4,0) tid=(15,2,0)
GPGPU-Sim PTX: 10100000 instructions simulated : ctaid=(8,4,0) tid=(13,7,0)
GPGPU-Sim uArch: cycles simulated: 34000  inst.: 9856646 (ipc=289.9) sim_rate=448029 (inst/sec) elapsed = 0:0:00:22 / Wed Mar  2 01:13:45 2016
GPGPU-Sim PTX: 10200000 instructions simulated : ctaid=(2,3,0) tid=(7,2,0)
GPGPU-Sim PTX: 10300000 instructions simulated : ctaid=(13,0,0) tid=(13,6,0)
GPGPU-Sim uArch: Shader 14 finished CTA #0 (34952,0), 4 CTAs running
GPGPU-Sim uArch: core: 14, cta: 0 initialized @(34953,0)
GPGPU-Sim uArch: Shader 2 finished CTA #1 (34993,0), 4 CTAs running
GPGPU-Sim uArch: core:  2, cta: 1 initialized @(34994,0)
GPGPU-Sim uArch: Shader 6 finished CTA #2 (35001,0), 4 CTAs running
GPGPU-Sim uArch: core:  6, cta: 2 initialized @(35002,0)
GPGPU-Sim PTX: 10400000 instructions simulated : ctaid=(10,0,0) tid=(9,2,0)
GPGPU-Sim uArch: Shader 2 finished CTA #0 (35015,0), 4 CTAs running
GPGPU-Sim uArch: core:  2, cta: 0 initialized @(35016,0)
GPGPU-Sim uArch: Shader 8 finished CTA #2 (35030,0), 4 CTAs running
GPGPU-Sim uArch: core:  8, cta: 2 initialized @(35031,0)
GPGPU-Sim uArch: Shader 0 finished CTA #0 (35039,0), 4 CTAs running
GPGPU-Sim uArch: core:  0, cta: 0 initialized @(35040,0)
GPGPU-Sim uArch: Shader 0 finished CTA #1 (35071,0), 4 CTAs running
GPGPU-Sim uArch: core:  0, cta: 1 initialized @(35072,0)
GPGPU-Sim uArch: Shader 0 finished CTA #3 (35087,0), 4 CTAs running
GPGPU-Sim uArch: core:  0, cta: 3 initialized @(35088,0)
GPGPU-Sim uArch: Shader 1 finished CTA #1 (35115,0), 4 CTAs running
GPGPU-Sim uArch: core:  1, cta: 1 initialized @(35116,0)
GPGPU-Sim uArch: Shader 8 finished CTA #3 (35129,0), 4 CTAs running
GPGPU-Sim uArch: core:  8, cta: 3 initialized @(35130,0)
GPGPU-Sim uArch: Shader 1 finished CTA #0 (35135,0), 4 CTAs running
GPGPU-Sim uArch: core:  1, cta: 0 initialized @(35136,0)
GPGPU-Sim uArch: Shader 5 finished CTA #2 (35144,0), 4 CTAs running
GPGPU-Sim uArch: core:  5, cta: 2 initialized @(35145,0)
GPGPU-Sim uArch: Shader 8 finished CTA #4 (35147,0), 4 CTAs running
GPGPU-Sim uArch: core:  8, cta: 4 initialized @(35148,0)
GPGPU-Sim uArch: Shader 2 finished CTA #2 (35149,0), 4 CTAs running
GPGPU-Sim uArch: core:  2, cta: 2 initialized @(35150,0)
GPGPU-Sim uArch: Shader 3 finished CTA #0 (35153,0), 4 CTAs running
GPGPU-Sim uArch: core:  3, cta: 0 initialized @(35154,0)
GPGPU-Sim uArch: Shader 2 finished CTA #3 (35163,0), 4 CTAs running
GPGPU-Sim uArch: core:  2, cta: 3 initialized @(35164,0)
GPGPU-Sim uArch: Shader 3 finished CTA #1 (35169,0), 4 CTAs running
GPGPU-Sim uArch: core:  3, cta: 1 initialized @(35170,0)
GPGPU-Sim uArch: Shader 6 finished CTA #3 (35170,0), 4 CTAs running
GPGPU-Sim uArch: core:  6, cta: 3 initialized @(35171,0)
GPGPU-Sim uArch: Shader 1 finished CTA #2 (35173,0), 4 CTAs running
GPGPU-Sim uArch: core:  1, cta: 2 initialized @(35174,0)
GPGPU-Sim uArch: Shader 5 finished CTA #3 (35184,0), 4 CTAs running
GPGPU-Sim uArch: core:  5, cta: 3 initialized @(35185,0)
GPGPU-Sim uArch: Shader 0 finished CTA #2 (35185,0), 4 CTAs running
GPGPU-Sim uArch: core:  0, cta: 2 initialized @(35186,0)
GPGPU-Sim uArch: Shader 1 finished CTA #4 (35199,0), 4 CTAs running
GPGPU-Sim uArch: Shader 3 finished CTA #2 (35199,0), 4 CTAs running
GPGPU-Sim uArch: core:  1, cta: 4 initialized @(35200,0)
GPGPU-Sim uArch: core:  3, cta: 2 initialized @(35200,0)
GPGPU-Sim uArch: Shader 4 finished CTA #2 (35201,0), 4 CTAs running
GPGPU-Sim uArch: core:  4, cta: 2 initialized @(35202,0)
GPGPU-Sim uArch: Shader 2 finished CTA #4 (35203,0), 4 CTAs running
GPGPU-Sim uArch: core:  2, cta: 4 initialized @(35204,0)
GPGPU-Sim uArch: Shader 6 finished CTA #4 (35205,0), 4 CTAs running
GPGPU-Sim uArch: core:  6, cta: 4 initialized @(35206,0)
GPGPU-Sim uArch: Shader 7 finished CTA #3 (35213,0), 4 CTAs running
GPGPU-Sim uArch: core:  7, cta: 3 initialized @(35214,0)
GPGPU-Sim uArch: Shader 5 finished CTA #4 (35214,0), 4 CTAs running
GPGPU-Sim uArch: core:  5, cta: 4 initialized @(35215,0)
GPGPU-Sim uArch: Shader 0 finished CTA #4 (35235,0), 4 CTAs running
GPGPU-Sim uArch: core:  0, cta: 4 initialized @(35236,0)
GPGPU-Sim uArch: Shader 4 finished CTA #1 (35239,0), 4 CTAs running
GPGPU-Sim uArch: core:  4, cta: 1 initialized @(35240,0)
GPGPU-Sim uArch: Shader 3 finished CTA #4 (35243,0), 4 CTAs running
GPGPU-Sim uArch: core:  3, cta: 4 initialized @(35244,0)
GPGPU-Sim uArch: Shader 1 finished CTA #3 (35245,0), 4 CTAs running
GPGPU-Sim uArch: core:  1, cta: 3 initialized @(35246,0)
GPGPU-Sim uArch: Shader 7 finished CTA #4 (35251,0), 4 CTAs running
GPGPU-Sim uArch: core:  7, cta: 4 initialized @(35252,0)
GPGPU-Sim uArch: Shader 4 finished CTA #3 (35269,0), 4 CTAs running
GPGPU-Sim uArch: core:  4, cta: 3 initialized @(35270,0)
GPGPU-Sim uArch: Shader 9 finished CTA #3 (35273,0), 4 CTAs running
GPGPU-Sim uArch: core:  9, cta: 3 initialized @(35274,0)
GPGPU-Sim uArch: Shader 9 finished CTA #4 (35292,0), 4 CTAs running
GPGPU-Sim uArch: core:  9, cta: 4 initialized @(35293,0)
GPGPU-Sim PTX: 10500000 instructions simulated : ctaid=(9,5,0) tid=(1,4,0)
GPGPU-Sim uArch: Shader 3 finished CTA #3 (35324,0), 4 CTAs running
GPGPU-Sim uArch: core:  3, cta: 3 initialized @(35325,0)
GPGPU-Sim uArch: Shader 10 finished CTA #4 (35472,0), 4 CTAs running
GPGPU-Sim uArch: core: 10, cta: 4 initialized @(35473,0)
GPGPU-Sim uArch: Shader 4 finished CTA #4 (35477,0), 4 CTAs running
GPGPU-Sim uArch: core:  4, cta: 4 initialized @(35478,0)
GPGPU-Sim uArch: cycles simulated: 35500  inst.: 10273294 (ipc=289.4) sim_rate=446664 (inst/sec) elapsed = 0:0:00:23 / Wed Mar  2 01:13:46 2016
GPGPU-Sim PTX: 10600000 instructions simulated : ctaid=(6,4,0) tid=(8,7,0)
GPGPU-Sim PTX: 10700000 instructions simulated : ctaid=(7,4,0) tid=(0,2,0)
GPGPU-Sim PTX: 10800000 instructions simulated : ctaid=(10,1,0) tid=(12,1,0)
GPGPU-Sim PTX: 10900000 instructions simulated : ctaid=(8,2,0) tid=(0,4,0)
GPGPU-Sim PTX: 11000000 instructions simulated : ctaid=(6,5,0) tid=(10,1,0)
GPGPU-Sim uArch: cycles simulated: 37000  inst.: 10796810 (ipc=291.8) sim_rate=449867 (inst/sec) elapsed = 0:0:00:24 / Wed Mar  2 01:13:47 2016
GPGPU-Sim PTX: 11100000 instructions simulated : ctaid=(11,1,0) tid=(2,5,0)
GPGPU-Sim PTX: 11200000 instructions simulated : ctaid=(8,4,0) tid=(14,3,0)
GPGPU-Sim PTX: 11300000 instructions simulated : ctaid=(14,6,0) tid=(15,6,0)
GPGPU-Sim PTX: 11400000 instructions simulated : ctaid=(11,6,0) tid=(10,1,0)
GPGPU-Sim PTX: 11500000 instructions simulated : ctaid=(9,3,0) tid=(12,2,0)
GPGPU-Sim PTX: 11600000 instructions simulated : ctaid=(13,4,0) tid=(1,3,0)
GPGPU-Sim uArch: cycles simulated: 38000  inst.: 11298859 (ipc=297.3) sim_rate=451954 (inst/sec) elapsed = 0:0:00:25 / Wed Mar  2 01:13:48 2016
GPGPU-Sim PTX: 11700000 instructions simulated : ctaid=(3,6,0) tid=(1,6,0)
GPGPU-Sim PTX: 11800000 instructions simulated : ctaid=(12,4,0) tid=(8,4,0)
GPGPU-Sim PTX: 11900000 instructions simulated : ctaid=(6,2,0) tid=(12,5,0)
GPGPU-Sim PTX: 12000000 instructions simulated : ctaid=(5,1,0) tid=(6,6,0)
GPGPU-Sim uArch: Shader 14 finished CTA #2 (38822,0), 4 CTAs running
GPGPU-Sim uArch: core: 14, cta: 2 initialized @(38823,0)
GPGPU-Sim PTX: 12100000 instructions simulated : ctaid=(4,6,0) tid=(12,1,0)
GPGPU-Sim uArch: cycles simulated: 39000  inst.: 11850674 (ipc=303.9) sim_rate=455795 (inst/sec) elapsed = 0:0:00:26 / Wed Mar  2 01:13:49 2016
GPGPU-Sim PTX: 12200000 instructions simulated : ctaid=(7,0,0) tid=(1,3,0)
GPGPU-Sim PTX: 12300000 instructions simulated : ctaid=(4,6,0) tid=(9,7,0)
GPGPU-Sim PTX: 12400000 instructions simulated : ctaid=(14,6,0) tid=(1,6,0)
GPGPU-Sim PTX: 12500000 instructions simulated : ctaid=(10,0,0) tid=(1,3,0)
GPGPU-Sim PTX: 12600000 instructions simulated : ctaid=(7,0,0) tid=(4,2,0)
GPGPU-Sim PTX: 12700000 instructions simulated : ctaid=(14,5,0) tid=(3,4,0)
GPGPU-Sim PTX: 12800000 instructions simulated : ctaid=(11,0,0) tid=(2,1,0)
GPGPU-Sim uArch: cycles simulated: 40000  inst.: 12492998 (ipc=312.3) sim_rate=462703 (inst/sec) elapsed = 0:0:00:27 / Wed Mar  2 01:13:50 2016
GPGPU-Sim PTX: 12900000 instructions simulated : ctaid=(6,5,0) tid=(1,7,0)
GPGPU-Sim PTX: 13000000 instructions simulated : ctaid=(1,5,0) tid=(6,4,0)
GPGPU-Sim uArch: Shader 7 finished CTA #2 (40306,0), 4 CTAs running
GPGPU-Sim uArch: core:  7, cta: 2 initialized @(40307,0)
GPGPU-Sim PTX: 13100000 instructions simulated : ctaid=(1,7,0) tid=(2,2,0)
GPGPU-Sim PTX: 13200000 instructions simulated : ctaid=(4,1,0) tid=(4,1,0)
GPGPU-Sim PTX: 13300000 instructions simulated : ctaid=(0,7,0) tid=(5,6,0)
GPGPU-Sim uArch: cycles simulated: 41000  inst.: 13042986 (ipc=318.1) sim_rate=465820 (inst/sec) elapsed = 0:0:00:28 / Wed Mar  2 01:13:51 2016
GPGPU-Sim PTX: 13400000 instructions simulated : ctaid=(10,5,0) tid=(12,3,0)
GPGPU-Sim PTX: 13500000 instructions simulated : ctaid=(10,1,0) tid=(10,3,0)
GPGPU-Sim PTX: 13600000 instructions simulated : ctaid=(15,4,0) tid=(0,4,0)
GPGPU-Sim PTX: 13700000 instructions simulated : ctaid=(3,5,0) tid=(14,3,0)
GPGPU-Sim PTX: 13800000 instructions simulated : ctaid=(8,4,0) tid=(12,2,0)
GPGPU-Sim PTX: 13900000 instructions simulated : ctaid=(11,6,0) tid=(3,2,0)
GPGPU-Sim uArch: cycles simulated: 42000  inst.: 13549330 (ipc=322.6) sim_rate=467218 (inst/sec) elapsed = 0:0:00:29 / Wed Mar  2 01:13:52 2016
GPGPU-Sim PTX: 14000000 instructions simulated : ctaid=(11,4,0) tid=(12,6,0)
GPGPU-Sim PTX: 14100000 instructions simulated : ctaid=(3,6,0) tid=(13,1,0)
GPGPU-Sim PTX: 14200000 instructions simulated : ctaid=(7,1,0) tid=(3,2,0)
GPGPU-Sim PTX: 14300000 instructions simulated : ctaid=(14,6,0) tid=(2,6,0)
GPGPU-Sim PTX: 14400000 instructions simulated : ctaid=(9,5,0) tid=(13,6,0)
GPGPU-Sim uArch: cycles simulated: 43000  inst.: 14097506 (ipc=327.8) sim_rate=469916 (inst/sec) elapsed = 0:0:00:30 / Wed Mar  2 01:13:53 2016
GPGPU-Sim PTX: 14500000 instructions simulated : ctaid=(2,7,0) tid=(11,4,0)
GPGPU-Sim PTX: 14600000 instructions simulated : ctaid=(6,1,0) tid=(13,4,0)
GPGPU-Sim PTX: 14700000 instructions simulated : ctaid=(15,4,0) tid=(2,1,0)
GPGPU-Sim PTX: 14800000 instructions simulated : ctaid=(2,7,0) tid=(0,5,0)
GPGPU-Sim PTX: 14900000 instructions simulated : ctaid=(9,2,0) tid=(5,7,0)
GPGPU-Sim PTX: 15000000 instructions simulated : ctaid=(9,1,0) tid=(7,2,0)
GPGPU-Sim PTX: 15100000 instructions simulated : ctaid=(13,5,0) tid=(9,5,0)
GPGPU-Sim PTX: 15200000 instructions simulated : ctaid=(7,0,0) tid=(5,6,0)
GPGPU-Sim PTX: 15300000 instructions simulated : ctaid=(6,1,0) tid=(7,5,0)
GPGPU-Sim uArch: cycles simulated: 44500  inst.: 14945500 (ipc=335.9) sim_rate=482112 (inst/sec) elapsed = 0:0:00:31 / Wed Mar  2 01:13:54 2016
GPGPU-Sim PTX: 15400000 instructions simulated : ctaid=(12,4,0) tid=(4,0,0)
GPGPU-Sim PTX: 15500000 instructions simulated : ctaid=(8,6,0) tid=(9,4,0)
GPGPU-Sim PTX: 15600000 instructions simulated : ctaid=(11,4,0) tid=(13,0,0)
GPGPU-Sim PTX: 15700000 instructions simulated : ctaid=(3,6,0) tid=(13,5,0)
GPGPU-Sim PTX: 15800000 instructions simulated : ctaid=(5,6,0) tid=(7,5,0)
GPGPU-Sim uArch: cycles simulated: 45500  inst.: 15399580 (ipc=338.5) sim_rate=481236 (inst/sec) elapsed = 0:0:00:32 / Wed Mar  2 01:13:55 2016
GPGPU-Sim PTX: 15900000 instructions simulated : ctaid=(12,4,0) tid=(4,1,0)
GPGPU-Sim PTX: 16000000 instructions simulated : ctaid=(7,6,0) tid=(12,5,0)
GPGPU-Sim PTX: 16100000 instructions simulated : ctaid=(4,5,0) tid=(2,4,0)
GPGPU-Sim PTX: 16200000 instructions simulated : ctaid=(12,5,0) tid=(10,7,0)
GPGPU-Sim uArch: cycles simulated: 46500  inst.: 15851926 (ipc=340.9) sim_rate=480361 (inst/sec) elapsed = 0:0:00:33 / Wed Mar  2 01:13:56 2016
GPGPU-Sim PTX: 16300000 instructions simulated : ctaid=(8,5,0) tid=(10,1,0)
GPGPU-Sim PTX: 16400000 instructions simulated : ctaid=(14,6,0) tid=(14,3,0)
GPGPU-Sim PTX: 16500000 instructions simulated : ctaid=(14,5,0) tid=(9,4,0)
GPGPU-Sim PTX: 16600000 instructions simulated : ctaid=(8,4,0) tid=(1,2,0)
GPGPU-Sim PTX: 16700000 instructions simulated : ctaid=(6,1,0) tid=(7,7,0)
GPGPU-Sim uArch: Shader 13 finished CTA #2 (47417,0), 4 CTAs running
GPGPU-Sim uArch: core: 13, cta: 2 initialized @(47418,0)
GPGPU-Sim PTX: 16800000 instructions simulated : ctaid=(5,6,0) tid=(12,4,0)
GPGPU-Sim PTX: 16900000 instructions simulated : ctaid=(4,6,0) tid=(0,5,0)
GPGPU-Sim PTX: 17000000 instructions simulated : ctaid=(1,5,0) tid=(0,2,0)
GPGPU-Sim uArch: cycles simulated: 48000  inst.: 16558720 (ipc=345.0) sim_rate=487021 (inst/sec) elapsed = 0:0:00:34 / Wed Mar  2 01:13:57 2016
GPGPU-Sim PTX: 17100000 instructions simulated : ctaid=(6,2,0) tid=(10,1,0)
GPGPU-Sim PTX: 17200000 instructions simulated : ctaid=(4,0,0) tid=(14,6,0)
GPGPU-Sim uArch: Shader 5 finished CTA #1 (48559,0), 4 CTAs running
GPGPU-Sim uArch: core:  5, cta: 1 initialized @(48560,0)
GPGPU-Sim PTX: 17300000 instructions simulated : ctaid=(5,0,0) tid=(1,4,0)
GPGPU-Sim PTX: 17400000 instructions simulated : ctaid=(9,5,0) tid=(14,1,0)
GPGPU-Sim uArch: cycles simulated: 49000  inst.: 17023657 (ipc=347.4) sim_rate=486390 (inst/sec) elapsed = 0:0:00:35 / Wed Mar  2 01:13:58 2016
GPGPU-Sim PTX: 17500000 instructions simulated : ctaid=(8,4,0) tid=(13,4,0)
GPGPU-Sim uArch: Shader 14 finished CTA #3 (49157,0), 4 CTAs running
GPGPU-Sim uArch: core: 14, cta: 3 initialized @(49158,0)
GPGPU-Sim PTX: 17600000 instructions simulated : ctaid=(12,5,0) tid=(11,2,0)
GPGPU-Sim PTX: 17700000 instructions simulated : ctaid=(6,4,0) tid=(1,4,0)
GPGPU-Sim uArch: Shader 12 finished CTA #3 (49590,0), 4 CTAs running
GPGPU-Sim uArch: core: 12, cta: 3 initialized @(49591,0)
GPGPU-Sim PTX: 17800000 instructions simulated : ctaid=(10,5,0) tid=(7,5,0)
GPGPU-Sim uArch: Shader 9 finished CTA #3 (49943,0), 4 CTAs running
GPGPU-Sim uArch: core:  9, cta: 3 initialized @(49944,0)
GPGPU-Sim PTX: 17900000 instructions simulated : ctaid=(7,1,0) tid=(13,5,0)
GPGPU-Sim uArch: cycles simulated: 50000  inst.: 17434434 (ipc=348.7) sim_rate=484289 (inst/sec) elapsed = 0:0:00:36 / Wed Mar  2 01:13:59 2016
GPGPU-Sim PTX: 18000000 instructions simulated : ctaid=(10,1,0) tid=(8,1,0)
GPGPU-Sim uArch: Shader 9 finished CTA #4 (50217,0), 4 CTAs running
GPGPU-Sim uArch: core:  9, cta: 4 initialized @(50218,0)
GPGPU-Sim PTX: 18100000 instructions simulated : ctaid=(10,5,0) tid=(2,0,0)
GPGPU-Sim PTX: 18200000 instructions simulated : ctaid=(7,5,0) tid=(2,2,0)
GPGPU-Sim uArch: Shader 4 finished CTA #2 (50665,0), 4 CTAs running
GPGPU-Sim uArch: core:  4, cta: 2 initialized @(50666,0)
GPGPU-Sim uArch: Shader 6 finished CTA #2 (50668,0), 4 CTAs running
GPGPU-Sim uArch: core:  6, cta: 2 initialized @(50669,0)
GPGPU-Sim PTX: 18300000 instructions simulated : ctaid=(11,5,0) tid=(0,2,0)
GPGPU-Sim uArch: Shader 6 finished CTA #1 (50868,0), 4 CTAs running
GPGPU-Sim uArch: core:  6, cta: 1 initialized @(50869,0)
GPGPU-Sim uArch: Shader 6 finished CTA #3 (50900,0), 4 CTAs running
GPGPU-Sim uArch: core:  6, cta: 3 initialized @(50901,0)
GPGPU-Sim uArch: Shader 4 finished CTA #3 (50941,0), 4 CTAs running
GPGPU-Sim uArch: core:  4, cta: 3 initialized @(50942,0)
GPGPU-Sim PTX: 18400000 instructions simulated : ctaid=(10,6,0) tid=(10,2,0)
GPGPU-Sim uArch: Shader 4 finished CTA #0 (51017,0), 4 CTAs running
GPGPU-Sim uArch: core:  4, cta: 0 initialized @(51018,0)
GPGPU-Sim uArch: Shader 7 finished CTA #3 (51083,0), 4 CTAs running
GPGPU-Sim uArch: core:  7, cta: 3 initialized @(51084,0)
GPGPU-Sim uArch: Shader 13 finished CTA #1 (51100,0), 4 CTAs running
GPGPU-Sim uArch: core: 13, cta: 1 initialized @(51101,0)
GPGPU-Sim uArch: Shader 7 finished CTA #4 (51113,0), 4 CTAs running
GPGPU-Sim uArch: core:  7, cta: 4 initialized @(51114,0)
GPGPU-Sim uArch: Shader 13 finished CTA #0 (51120,0), 4 CTAs running
GPGPU-Sim uArch: core: 13, cta: 0 initialized @(51121,0)
GPGPU-Sim uArch: Shader 10 finished CTA #3 (51162,0), 4 CTAs running
GPGPU-Sim uArch: core: 10, cta: 3 initialized @(51163,0)
GPGPU-Sim PTX: 18500000 instructions simulated : ctaid=(9,6,0) tid=(14,2,0)
GPGPU-Sim uArch: Shader 10 finished CTA #4 (51258,0), 4 CTAs running
GPGPU-Sim uArch: core: 10, cta: 4 initialized @(51259,0)
GPGPU-Sim uArch: Shader 13 finished CTA #3 (51321,0), 4 CTAs running
GPGPU-Sim uArch: core: 13, cta: 3 initialized @(51322,0)
GPGPU-Sim PTX: 18600000 instructions simulated : ctaid=(8,5,0) tid=(7,0,0)
GPGPU-Sim uArch: cycles simulated: 51500  inst.: 18131982 (ipc=352.1) sim_rate=490053 (inst/sec) elapsed = 0:0:00:37 / Wed Mar  2 01:14:00 2016
GPGPU-Sim uArch: Shader 4 finished CTA #4 (51525,0), 4 CTAs running
GPGPU-Sim uArch: core:  4, cta: 4 initialized @(51526,0)
GPGPU-Sim PTX: 18700000 instructions simulated : ctaid=(15,6,0) tid=(9,6,0)
GPGPU-Sim PTX: 18800000 instructions simulated : ctaid=(10,5,0) tid=(2,7,0)
GPGPU-Sim uArch: Shader 5 finished CTA #3 (52141,0), 4 CTAs running
GPGPU-Sim uArch: core:  5, cta: 3 initialized @(52142,0)
GPGPU-Sim PTX: 18900000 instructions simulated : ctaid=(11,4,0) tid=(3,7,0)
GPGPU-Sim PTX: 19000000 instructions simulated : ctaid=(12,7,0) tid=(15,6,0)
GPGPU-Sim uArch: Shader 0 finished CTA #1 (52410,0), 4 CTAs running
GPGPU-Sim uArch: core:  0, cta: 1 initialized @(52411,0)
GPGPU-Sim uArch: Shader 8 finished CTA #3 (52461,0), 4 CTAs running
GPGPU-Sim uArch: core:  8, cta: 3 initialized @(52462,0)
[...]
maxmrqlatency = 1081 
maxdqlatency = 0 
maxmflatency = 3135 
averagemflatency = 318 
max_icnt2mem_latency = 1848 
max_icnt2sh_latency = 147738 
mrq_lat_table:11986 	506 	899 	1829 	4075 	3702 	3648 	3657 	1777 	213 	2 	0 	0 	0 	0 	0 	0 	0 	0 	0 	0 	0 	0 	0 	0 	0 	0 	0 	0 	0 	0 	0 	
dq_lat_table:0 	0 	0 	0 	0 	0 	0 	0 	0 	0 	0 	0 	0 	0 	0 	0 	0 	0 	0 	0 	0 	0 	0 	0 	0 	0 	0 	0 	0 	0 	0 	0 	
mf_lat_table:0 	0 	0 	0 	0 	0 	0 	48749 	8428 	2086 	4237 	324 	0 	0 	0 	0 	0 	0 	0 	0 	0 	0 	0 	0 	0 	0 	0 	0 	0 	0 	0 	0 	
icnt2mem_lat_table:0 	0 	0 	20904 	13055 	13677 	28428 	1822 	1549 	2446 	159 	0 	0 	0 	0 	0 	0 	0 	0 	0 	0 	0 	0 	0 	
icnt2sh_lat_table:0 	0 	0 	5131 	4138 	1718 	208 	0 	0 	117 	281 	679 	1604 	3524 	3695 	10927 	22820 	8982 	0 	0 	0 	0 	0 	0 	
mf_lat_pw_table:0 	0 	0 	0 	0 	0 	0 	233 	8 	2 	31 	0 	0 	0 	0 	0 	0 	0 	0 	0 	0 	0 	0 	0 	0 	0 	0 	0 	0 	0 	0 	0 	
maximum concurrent accesses to same row:
dram[0]:        46        56        36        34        24        24        37        26        42        26        18        27        18        16        20        21 
dram[1]:        52        54        34        32        18        22        28        41        26        20        24        14        22        20        15        20 
dram[2]:        62        62        60        56        28        30        27        36        30        26        18        14        28        30        22        26 
dram[3]:        60        62        62        60        32        30        45        39        24        16        20        15        22        17        18        20 
dram[4]:        62        64        60        60        32        30        31        23        24        22        24        23        17        26        25        18 
dram[5]:        62        62        62        56        32        32        25        39        24        18        19        20        16        20        27        21 
maximum service time to same row:
dram[0]:     16953     27941     20347     16895     21671     17213     17928     20727     18865     18891     57544     19996     49603     37403     35680     23240 
dram[1]:     21027     16091     21431     19143     16559     16549     17100     17071     18128     17802     21305     42865     48596     21296     18259     25213 
dram[2]:     15010     20828     18976     31408     26434     17659     20284     28151     18232     18279     19569     19445     31512     29321     19277     32017 
dram[3]:     11025     19032     17905     31292     26837     16479     15414     23754     19145     17638     18485     18726     31125     28608     23933     19931 
dram[4]:     16061     15623     21141     28350     16664     33044     17850     17683     18606     19572     22830     31624     31106     46417     50552     22365 
dram[5]:     15644     15452     17007     19358     16661     18028     16920     16489     16996     20949     34474     18068     20556     20519     20526     34055 
average row accesses per activate:
dram[0]:  5.716981  5.903846  5.207547  4.611940  3.722222  3.131313  3.678161  3.835052  4.350000  3.400000  3.961039  3.546392  4.250000  4.362500  4.378788  4.250000 
dram[1]:  4.609756  5.807017  4.500000  4.102941  3.220339  4.146667  3.232759  3.537634  2.919463  3.196581  3.567010  3.961039  3.725664  3.708333  3.827161  5.017544 
dram[2]:  5.296875  6.510204  5.781818  7.179487  4.187500  3.891566  3.460177  4.794520  3.611111  4.147727  3.458716  3.614583  4.084337  3.843750  5.158730  4.746032 
dram[3]:  4.909091  5.629630  8.645162  5.216667  3.922078  3.189655  4.056180  4.011236  3.630000  3.378378  3.395604  3.372727  4.237500  4.152174  4.261539  3.900000 
dram[4]:  5.293103  6.055555  7.970588  6.260870  4.179487  3.432990  4.049383  3.644231  3.958333  3.831579  3.717647  3.659575  4.055555  5.457627  5.680851  4.263158 
dram[5]:  5.781818  5.546875  6.733333  8.741936  3.606383  3.133929  3.426087  3.470000  3.391304  3.657408  3.745098  4.753846  3.833333  4.594937  5.100000  4.388060 
average row locality = 32294/7816 = 4.131781
number of total memory accesses made:
dram[0]:         0         0         0         0         0         0         0         0         0         0         0         0         0         0         0         0 
dram[1]:         0         0         0         0         0         0         0         0         0         0         0         0         0         0         0         0 
dram[2]:         0         0         0         0         0         0         0         0         0         0         0         0         0         0         0         0 
dram[3]:         0         0         0         0         0         0         0         0         0         0         0         0         0         0         0         0 
dram[4]:         0         0         0         0         0         0         0         0         0         0         0         0         0         0         0         0 
dram[5]:         0         0         0         0         0         0         0         0         0         0         0         0         0         0         0         0 
total accesses: 0
min_bank_accesses = 0!
min_chip_accesses = 0!
number of total read accesses:
dram[0]:       140       132       119       132       133       131       131       149       139       156       126       140       147       146       125       132 
dram[1]:       166       143       134       119       156       129       152       131       179       150       139       125       168       150       136       123 
dram[2]:       151       142       135       122       139       131       157       140       156       146       157       143       144       156       139       131 
dram[3]:       145       133       115       132       125       150       143       146       145       153       128       152       141       159       122       136 
dram[4]:       138       143       119       125       133       139       135       152       152       149       129       141       155       138       117       139 
dram[5]:       141       155       132       119       142       145       160       138       158       157       157       128       161       152       128       129 
total reads: 13498
bank skew: 179/115 = 1.56
chip skew: 2302/2178 = 1.06
number of total write accesses:
dram[0]:       163       175       157       177       202       179       189       223       209       235       179       204       210       203       164       174 
dram[1]:       212       188       181       160       224       182       223       198       256       224       207       180       253       206       174       163 
dram[2]:       188       177       183       158       196       192       234       210       234       219       220       204       195       213       186       168 
dram[3]:       179       171       153       181       177       220       218       211       218       222       181       219       198       223       155       176 
dram[4]:       169       184       152       163       193       194       193       227       228       215       187       203       210       184       150       185 
dram[5]:       177       200       171       152       197       206       234       209       232       238       225       181       230       211       178       165 
total reads: 18796
bank skew: 256/150 = 1.71
chip skew: 3231/3037 = 1.06
average mf latency per bank:
dram[0]:        717       511       718       569       659       635       824       633       695       546       714       620       637       591       660       581
dram[1]:        537       487       558       610       517       587       612       678       471       558       581       656       484       574       540       607
dram[2]:        609       624       699       769       743       736       713       791       662       654       672       687       712       608       644       660
dram[3]:        565       653       744       669       682       602       703       741       633       614       718       604       649       569       674       612
dram[4]:        600       529       772       733       650       693       778       676       612       625       674       650       585       693       690       601
dram[5]:        550       477       688       698       603       546       600       634       552       530       561       638       516       542       576       584
maximum mf latency per bank:
dram[0]:       2227      1617      2724      1872      2242      2087      2258      2046      2242      1721      1989      1844      2262      1744      2140      1925
dram[1]:       1719      1604      2159      1966      2040      1737      2004      1712      1685      1691      1920      1949      1778      1868      1874      1782
dram[2]:       2294      2174      2696      2717      2522      2396      2665      2653      3119      2856      2817      2450      2298      2430      2198      1994
dram[3]:       2280      2453      2444      2986      2220      2624      2630      2959      2930      2699      2033      2885      2735      2239      2147      2550
dram[4]:       2479      2554      3135      2909      2741      2566      2761      2231      2530      2309      2146      2025      2013      2183      2102      2210
dram[5]:       2644      2445      2776      2854      2764      2591      2570      2065      2212      2098      2418      1813      1984      2052      1950      2001

Number of Memory Banks Accessed per Memory Operation per Warp (from 0):
0	0	0	0	0	0	0	0	0	0	0	0	0	0	0	0	0	0	0	0	0	0	0	0	0	0	0	0	0	0	0	0	0	0	0	0	0	0	0	0	0	0	0	0	0	0	0	0	0	0	0	0	0	0	0	0	0	0	0	0	0	0	0	0	0	0	0	0	0	0	0	0	0	0	0	0	0	0	0	0	0	0	0	0	0	0	0	0	0	0	0	0	0	0	0	0	
Average # of Memory Banks Accessed per Memory Operation per Warp=-nan

position of mrq chosen
0	0	0	0	0	0	0	0	0	0	0	0	0	0	0	0	

average position of mrq chosen = -nan
Memory Partition 0: 
Cache L2_bank_000:
MSHR contents

Cache L2_bank_001:
MSHR contents

In Dram Latency Queue (total = 0): 
DRAM[0]: 16 bks, busW=4 BL=4 CL=12, tRRD=2 tCCD=6, tRCD=12 tRAS=28 tRP=12 tRC=40
n_cmd=195015 n_nop=172576 n_act=1269 n_pre=1253 n_req=5221 n_rd=8712 n_write=11205 bw_util=0.1021
n_activity=68298 dram_eff=0.2916
bk0: 560a 181051i bk1: 528a 181552i bk2: 476a 179969i bk3: 528a 177813i bk4: 532a 175688i bk5: 524a 174386i bk6: 524a 173893i bk7: 596a 173014i bk8: 556a 177525i bk9: 624a 175645i bk10: 504a 177650i bk11: 560a 175223i bk12: 588a 175875i bk13: 584a 175974i bk14: 500a 178195i bk15: 528a 178038i 
dram_util_bins: 0 0 0 0 0 0 0 0 0 0
dram_eff_bins: 0 0 0 0 0 0 0 0 0 0
mrqq: max=16 avg=2.27828
Memory Partition 1: 
Cache L2_bank_002:
MSHR contents

Cache L2_bank_003:
MSHR contents

In Dram Latency Queue (total = 0): 
DRAM[1]: 16 bks, busW=4 BL=4 CL=12, tRRD=2 tCCD=6, tRCD=12 tRAS=28 tRP=12 tRC=40
n_cmd=195015 n_nop=170945 n_act=1466 n_pre=1450 n_req=5531 n_rd=9200 n_write=11954 bw_util=0.1085
n_activity=72803 dram_eff=0.2906
bk0: 664a 178203i bk1: 572a 179949i bk2: 536a 178693i bk3: 476a 179756i bk4: 624a 173423i bk5: 516a 176430i bk6: 608a 173778i bk7: 524a 176329i bk8: 716a 173680i bk9: 600a 175419i bk10: 556a 175871i bk11: 500a 177786i bk12: 672a 173066i bk13: 600a 174530i bk14: 544a 178031i bk15: 492a 178633i 
dram_util_bins: 0 0 0 0 0 0 0 0 0 0
dram_eff_bins: 0 0 0 0 0 0 0 0 0 0
mrqq: max=16 avg=2.18137
Memory Partition 2: 
Cache L2_bank_004:
MSHR contents

Cache L2_bank_005:
MSHR contents

In Dram Latency Queue (total = 0): 
DRAM[2]: 16 bks, busW=4 BL=4 CL=12, tRRD=2 tCCD=6, tRCD=12 tRAS=28 tRP=12 tRC=40
n_cmd=195015 n_nop=171623 n_act=1262 n_pre=1246 n_req=5466 n_rd=9156 n_write=11728 bw_util=0.1071
n_activity=72009 dram_eff=0.29
bk0: 604a 181142i bk1: 568a 180047i bk2: 540a 179932i bk3: 488a 180812i bk4: 556a 177154i bk5: 524a 175539i bk6: 628a 172532i bk7: 560a 174361i bk8: 624a 175408i bk9: 584a 175937i bk10: 628a 175291i bk11: 572a 175911i bk12: 576a 175725i bk13: 624a 175408i bk14: 556a 177334i bk15: 524a 178303i 
dram_util_bins: 0 0 0 0 0 0 0 0 0 0
dram_eff_bins: 0 0 0 0 0 0 0 0 0 0
mrqq: max=16 avg=2.34914
Memory Partition 3: 
Cache L2_bank_006:
MSHR contents

Cache L2_bank_007:
MSHR contents

In Dram Latency Queue (total = 0): 
DRAM[3]: 16 bks, busW=4 BL=4 CL=12, tRRD=2 tCCD=6, tRCD=12 tRAS=28 tRP=12 tRC=40
n_cmd=195015 n_nop=172068 n_act=1311 n_pre=1295 n_req=5327 n_rd=8900 n_write=11441 bw_util=0.1043
n_activity=70694 dram_eff=0.2877
bk0: 580a 181377i bk1: 532a 181079i bk2: 460a 183056i bk3: 528a 179208i bk4: 500a 177665i bk5: 600a 174182i bk6: 572a 174825i bk7: 584a 173991i bk8: 580a 176619i bk9: 612a 176056i bk10: 512a 176581i bk11: 608a 174900i bk12: 564a 176680i bk13: 636a 174755i bk14: 488a 178643i bk15: 544a 177817i 
dram_util_bins: 0 0 0 0 0 0 0 0 0 0
dram_eff_bins: 0 0 0 0 0 0 0 0 0 0
mrqq: max=16 avg=2.2551
Memory Partition 4: 
Cache L2_bank_008:
MSHR contents

Cache L2_bank_009:
MSHR contents

In Dram Latency Queue (total = 0): 
DRAM[4]: 16 bks, busW=4 BL=4 CL=12, tRRD=2 tCCD=6, tRCD=12 tRAS=28 tRP=12 tRC=40
n_cmd=195015 n_nop=172653 n_act=1194 n_pre=1178 n_req=5241 n_rd=8816 n_write=11174 bw_util=0.1025
n_activity=70717 dram_eff=0.2827
bk0: 552a 181250i bk1: 572a 181020i bk2: 476a 181398i bk3: 500a 181565i bk4: 532a 177842i bk5: 556a 175741i bk6: 540a 175325i bk7: 608a 172719i bk8: 608a 175821i bk9: 596a 176536i bk10: 516a 177272i bk11: 564a 176430i bk12: 620a 175738i bk13: 552a 176431i bk14: 468a 180190i bk15: 556a 177343i 
dram_util_bins: 0 0 0 0 0 0 0 0 0 0
dram_eff_bins: 0 0 0 0 0 0 0 0 0 0
mrqq: max=16 avg=2.29857
Memory Partition 5: 
Cache L2_bank_010:
MSHR contents

Cache L2_bank_011:
MSHR contents

In Dram Latency Queue (total = 0): 
DRAM[5]: 16 bks, busW=4 BL=4 CL=12, tRRD=2 tCCD=6, tRCD=12 tRAS=28 tRP=12 tRC=40
n_cmd=195015 n_nop=171360 n_act=1314 n_pre=1298 n_req=5508 n_rd=9208 n_write=11835 bw_util=0.1079
n_activity=74969 dram_eff=0.2807
bk0: 564a 181332i bk1: 620a 179045i bk2: 528a 180637i bk3: 476a 182394i bk4: 568a 176387i bk5: 580a 176370i bk6: 640a 174278i bk7: 552a 175976i bk8: 632a 175358i bk9: 628a 175042i bk10: 628a 174587i bk11: 512a 178386i bk12: 644a 175462i bk13: 608a 175696i bk14: 512a 178941i bk15: 516a 178840i 
dram_util_bins: 0 0 0 0 0 0 0 0 0 0
dram_eff_bins: 0 0 0 0 0 0 0 0 0 0
mrqq: max=16 avg=2.25722

========= L2 cache stats =========
L2_cache_bank[0]: Access = 6743, Miss = 1060, Miss_rate = 0.157, Pending_hits = 94, Reservation_fails = 1216
L2_cache_bank[1]: Access = 6817, Miss = 1118, Miss_rate = 0.164, Pending_hits = 88, Reservation_fails = 400
L2_cache_bank[2]: Access = 6774, Miss = 1230, Miss_rate = 0.182, Pending_hits = 102, Reservation_fails = 1175
L2_cache_bank[3]: Access = 6826, Miss = 1070, Miss_rate = 0.157, Pending_hits = 89, Reservation_fails = 417
L2_cache_bank[4]: Access = 6779, Miss = 1178, Miss_rate = 0.174, Pending_hits = 108, Reservation_fails = 1394
L2_cache_bank[5]: Access = 6979, Miss = 1111, Miss_rate = 0.159, Pending_hits = 93, Reservation_fails = 860
L2_cache_bank[6]: Access = 7008, Miss = 1064, Miss_rate = 0.152, Pending_hits = 91, Reservation_fails = 709
L2_cache_bank[7]: Access = 7149, Miss = 1161, Miss_rate = 0.162, Pending_hits = 86, Reservation_fails = 473
L2_cache_bank[8]: Access = 6880, Miss = 1078, Miss_rate = 0.157, Pending_hits = 78, Reservation_fails = 210
L2_cache_bank[9]: Access = 6664, Miss = 1126, Miss_rate = 0.169, Pending_hits = 80, Reservation_fails = 359
L2_cache_bank[10]: Access = 6784, Miss = 1179, Miss_rate = 0.174, Pending_hits = 90, Reservation_fails = 1077
L2_cache_bank[11]: Access = 6637, Miss = 1123, Miss_rate = 0.169, Pending_hits = 83, Reservation_fails = 561
L2_total_cache_accesses = 82040
L2_total_cache_misses = 13498
L2_total_cache_miss_rate = 0.1645
L2_total_cache_pending_hits = 1082
L2_total_cache_reservation_fails = 8851
L2_total_cache_breakdown:
	L2_cache_stats_breakdown[GLOBAL_ACC_R][HIT] = 3628
	L2_cache_stats_breakdown[GLOBAL_ACC_R][HIT_RESERVED] = 16
	L2_cache_stats_breakdown[GLOBAL_ACC_R][MISS] = 165
	L2_cache_stats_breakdown[GLOBAL_ACC_R][RESERVATION_FAIL] = 363
	L2_cache_stats_breakdown[LOCAL_ACC_R][HIT] = 6794
	L2_cache_stats_breakdown[LOCAL_ACC_R][HIT_RESERVED] = 137
	L2_cache_stats_breakdown[LOCAL_ACC_R][MISS] = 425
	L2_cache_stats_breakdown[CONST_ACC_R][HIT] = 22
	L2_cache_stats_breakdown[CONST_ACC_R][HIT_RESERVED] = 6
	L2_cache_stats_breakdown[CONST_ACC_R][MISS] = 2
	L2_cache_stats_breakdown[CONST_ACC_R][RESERVATION_FAIL] = 278
	L2_cache_stats_breakdown[GLOBAL_ACC_W][HIT] = 5391
	L2_cache_stats_breakdown[GLOBAL_ACC_W][HIT_RESERVED] = 753
	L2_cache_stats_breakdown[GLOBAL_ACC_W][MISS] = 2048
	L2_cache_stats_breakdown[GLOBAL_ACC_W][RESERVATION_FAIL] = 93
	L2_cache_stats_breakdown[LOCAL_ACC_W][HIT] = 34951
	L2_cache_stats_breakdown[LOCAL_ACC_W][HIT_RESERVED] = 20
	L2_cache_stats_breakdown[LOCAL_ACC_W][MISS] = 9466
	L2_cache_stats_breakdown[LOCAL_ACC_W][RESERVATION_FAIL] = 827
	L2_cache_stats_breakdown[L1_WRBK_ACC][HIT] = 3692
	L2_cache_stats_breakdown[L1_WRBK_ACC][MISS] = 1339
	L2_cache_stats_breakdown[INST_ACC_R][HIT] = 12982
	L2_cache_stats_breakdown[INST_ACC_R][HIT_RESERVED] = 150
	L2_cache_stats_breakdown[INST_ACC_R][MISS] = 53
	L2_cache_stats_breakdown[INST_ACC_R][RESERVATION_FAIL] = 7290
L2_cache_data_port_util = 0.145
L2_cache_fill_port_util = 0.030

icnt_total_pkts_mem_to_simt=174469
icnt_total_pkts_simt_to_mem=292997
LD_mem_lat_dist  0 0 0 0 0 0 0 0 0 0 0 0 0 0 0 0 0 0 0 0 0 0 0 0 0 0 0
ST_mem_lat_dist  0 0 0 0 0 0 0 0 0 0 0 0 0 0 0 0 0 0 0 0 0 0 0 0 0 0 0
----------------------------Interconnect-DETAILS--------------------------------
Class 0:
Packet latency average = 19.479
	minimum = 6
	maximum = 1452
Network latency average = 15.0905
	minimum = 6
	maximum = 1011
Slowest packet = 655
Flit latency average = 14.5865
	minimum = 6
	maximum = 1007
Slowest flit = 5269
Fragmentation average = 0.239216
	minimum = 0
	maximum = 798
Injected packet rate average = 0.0398724
	minimum = 0.0348452 (at node 5)
	maximum = 0.045709 (at node 22)
Accepted packet rate average = 0.0398724
	minimum = 0.03295 (at node 5)
	maximum = 0.0483894 (at node 22)
Injected flit rate average = 0.11719
	minimum = 0.0921355 (at node 19)
	maximum = 0.147294 (at node 4)
Accepted flit rate average= 0.11719
	minimum = 0.0683097 (at node 1)
	maximum = 0.17183 (at node 22)
Injected packet length average = 2.93913
Accepted packet length average = 2.93913
Total in-flight flits = 0 (0 measured)
====== Overall Traffic Statistics ======
====== Traffic class 0 ======
Packet latency average = 19.479 (1 samples)
	minimum = 6 (1 samples)
	maximum = 1452 (1 samples)
Network latency average = 15.0905 (1 samples)
	minimum = 6 (1 samples)
	maximum = 1011 (1 samples)
Flit latency average = 14.5865 (1 samples)
	minimum = 6 (1 samples)
	maximum = 1007 (1 samples)
Fragmentation average = 0.239216 (1 samples)
	minimum = 0 (1 samples)
	maximum = 798 (1 samples)
Injected packet rate average = 0.0398724 (1 samples)
	minimum = 0.0348452 (1 samples)
	maximum = 0.045709 (1 samples)
Accepted packet rate average = 0.0398724 (1 samples)
	minimum = 0.03295 (1 samples)
	maximum = 0.0483894 (1 samples)
Injected flit rate average = 0.11719 (1 samples)
	minimum = 0.0921355 (1 samples)
	maximum = 0.147294 (1 samples)
Accepted flit rate average = 0.11719 (1 samples)
	minimum = 0.0683097 (1 samples)
	maximum = 0.17183 (1 samples)
Injected packet size average = 2.93913 (1 samples)
Accepted packet size average = 2.93913 (1 samples)
Hops average = 1 (1 samples)
----------------------------END-of-Interconnect-DETAILS-------------------------


gpgpu_simulation_time = 0 days, 0 hrs, 2 min, 7 sec (127 sec)
gpgpu_simulation_rate = 493563 (inst/sec)
gpgpu_simulation_rate = 1163 (cycle/sec)
GPGPU-Sim: synchronize waiting for inactive GPU simulation
GPGPU-Sim API: Stream Manager State
GPGPU-Sim: detected inactive GPU simulation thread

checksum=75ef40cb5b8e
Kernel Time: 125733.515625 
