

        *** GPGPU-Sim Simulator Version 3.2.2  [build 0] ***


GPGPU-Sim PTX: simulation mode 0 (can change with PTX_SIM_MODE_FUNC environment variable:
               1=functional simulation only, 0=detailed performance simulator)
GPGPU-Sim: Configuration options:

-network_mode                           1 # Interconnection network mode
-inter_config_file   config_fermi_islip.icnt # Interconnection network config file
-gpgpu_ptx_use_cuobjdump                    1 # Use cuobjdump to extract ptx and sass from binaries
-gpgpu_experimental_lib_support                    0 # Try to extract code from cuda libraries [Broken because of unknown cudaGetExportTable]
-gpgpu_ptx_convert_to_ptxplus                    0 # Convert SASS (native ISA) to ptxplus and run ptxplus
-gpgpu_ptx_force_max_capability                   20 # Force maximum compute capability
-gpgpu_ptx_inst_debug_to_file                    0 # Dump executed instructions' debug information to file
-gpgpu_ptx_inst_debug_file       inst_debug.txt # Executed instructions' debug output file
-gpgpu_ptx_inst_debug_thread_uid                    1 # Thread UID for executed instructions' debug output
-gpgpu_simd_model                       1 # 1 = post-dominator
-gpgpu_shader_core_pipeline              1536:32 # shader core pipeline config, i.e., {<nthread>:<warpsize>}
-gpgpu_tex_cache:l1  4:128:24,L:R:m:N:L,F:128:4,128:2 # per-shader L1 texture cache  (READ-ONLY) config  {<nsets>:<bsize>:<assoc>,<rep>:<wr>:<alloc>:<wr_alloc>,<mshr>:<N>:<merge>,<mq>:<rf>}
-gpgpu_const_cache:l1 64:64:2,L:R:f:N:L,A:2:32,4 # per-shader L1 constant memory cache  (READ-ONLY) config  {<nsets>:<bsize>:<assoc>,<rep>:<wr>:<alloc>:<wr_alloc>,<mshr>:<N>:<merge>,<mq>} 
-gpgpu_cache:il1     4:128:4,L:R:f:N:L,A:2:32,4 # shader L1 instruction cache config  {<nsets>:<bsize>:<assoc>,<rep>:<wr>:<alloc>:<wr_alloc>,<mshr>:<N>:<merge>,<mq>} 
-gpgpu_cache:dl1     32:128:4,L:L:m:N:H,A:32:8,8 # per-shader L1 data cache config  {<nsets>:<bsize>:<assoc>,<rep>:<wr>:<alloc>:<wr_alloc>,<mshr>:<N>:<merge>,<mq> | none}
-gpgpu_cache:dl1PrefL1                 none # per-shader L1 data cache config  {<nsets>:<bsize>:<assoc>,<rep>:<wr>:<alloc>:<wr_alloc>,<mshr>:<N>:<merge>,<mq> | none}
-gpgpu_cache:dl1PreShared                 none # per-shader L1 data cache config  {<nsets>:<bsize>:<assoc>,<rep>:<wr>:<alloc>:<wr_alloc>,<mshr>:<N>:<merge>,<mq> | none}
-gmem_skip_L1D                          0 # global memory access skip L1D cache (implements -Xptxas -dlcm=cg, default=no skip)
-gpgpu_perfect_mem                      0 # enable perfect memory mode (no cache miss)
-n_regfile_gating_group                    4 # group of lanes that should be read/written together)
-gpgpu_clock_gated_reg_file                    0 # enable clock gated reg file for power calculations
-gpgpu_clock_gated_lanes                    0 # enable clock gated lanes for power calculations
-gpgpu_shader_registers                32768 # Number of registers per shader core. Limits number of concurrent CTAs. (default 8192)
-gpgpu_shader_cta                       8 # Maximum number of concurrent CTAs in shader (default 8)
-gpgpu_num_cta_barriers                   16 # Maximum number of named barriers per CTA (default 16)
-gpgpu_n_clusters                      15 # number of processing clusters
-gpgpu_n_cores_per_cluster                    1 # number of simd cores per cluster
-gpgpu_n_cluster_ejection_buffer_size                    8 # number of packets in ejection buffer
-gpgpu_n_ldst_response_buffer_size                    2 # number of response packets in ld/st unit ejection buffer
-gpgpu_shmem_size                   16384 # Size of shared memory per shader core (default 16kB)
-gpgpu_shmem_size                   49152 # Size of shared memory per shader core (default 16kB)
-gpgpu_shmem_size_PrefL1                16384 # Size of shared memory per shader core (default 16kB)
-gpgpu_shmem_size_PrefShared                16384 # Size of shared memory per shader core (default 16kB)
-gpgpu_shmem_num_banks                   32 # Number of banks in the shared memory in each shader core (default 16)
-gpgpu_shmem_limited_broadcast                    0 # Limit shared memory to do one broadcast per cycle (default on)
-gpgpu_shmem_warp_parts                    1 # Number of portions a warp is divided into for shared memory bank conflict check 
-gpgpu_warpdistro_shader                   -1 # Specify which shader core to collect the warp size distribution from
-gpgpu_warp_issue_shader                    0 # Specify which shader core to collect the warp issue distribution from
-gpgpu_local_mem_map                    1 # Mapping from local memory space address to simulated GPU physical address space (default = enabled)
-gpgpu_num_reg_banks                   16 # Number of register banks (default = 8)
-gpgpu_reg_bank_use_warp_id                    0 # Use warp ID in mapping registers to banks (default = off)
-gpgpu_operand_collector_num_units_sp                    6 # number of collector units (default = 4)
-gpgpu_operand_collector_num_units_sfu                    8 # number of collector units (default = 4)
-gpgpu_operand_collector_num_units_mem                    2 # number of collector units (default = 2)
-gpgpu_operand_collector_num_units_gen                    0 # number of collector units (default = 0)
-gpgpu_operand_collector_num_in_ports_sp                    2 # number of collector unit in ports (default = 1)
-gpgpu_operand_collector_num_in_ports_sfu                    1 # number of collector unit in ports (default = 1)
-gpgpu_operand_collector_num_in_ports_mem                    1 # number of collector unit in ports (default = 1)
-gpgpu_operand_collector_num_in_ports_gen                    0 # number of collector unit in ports (default = 0)
-gpgpu_operand_collector_num_out_ports_sp                    2 # number of collector unit in ports (default = 1)
-gpgpu_operand_collector_num_out_ports_sfu                    1 # number of collector unit in ports (default = 1)
-gpgpu_operand_collector_num_out_ports_mem                    1 # number of collector unit in ports (default = 1)
-gpgpu_operand_collector_num_out_ports_gen                    0 # number of collector unit in ports (default = 0)
-gpgpu_coalesce_arch                   13 # Coalescing arch (default = 13, anything else is off for now)
-gpgpu_num_sched_per_core                    2 # Number of warp schedulers per core
-gpgpu_max_insn_issue_per_warp                    1 # Max number of instructions that can be issued per warp in one cycle by scheduler
-gpgpu_simt_core_sim_order                    1 # Select the simulation order of cores in a cluster (0=Fix, 1=Round-Robin)
-gpgpu_pipeline_widths        2,1,1,2,1,1,2 # Pipeline widths ID_OC_SP,ID_OC_SFU,ID_OC_MEM,OC_EX_SP,OC_EX_SFU,OC_EX_MEM,EX_WB
-gpgpu_num_sp_units                     2 # Number of SP units (default=1)
-gpgpu_num_sfu_units                    1 # Number of SF units (default=1)
-gpgpu_num_mem_units                    1 # Number if ldst units (default=1) WARNING: not hooked up to anything
-gpgpu_scheduler                      gto # Scheduler configuration: < lrr | gto | two_level_active > If two_level_active:<num_active_warps>:<inner_prioritization>:<outer_prioritization>For complete list of prioritization values see shader.h enum scheduler_prioritization_typeDefault: gto
-gpgpu_dram_scheduler                    1 # 0 = fifo, 1 = FR-FCFS (defaul)
-gpgpu_dram_partition_queues              8:8:8:8 # i2$:$2d:d2$:$2i
-l2_ideal                               0 # Use a ideal L2 cache that always hit
-gpgpu_cache:dl2     64:128:4,L:B:m:W:L,A:32:4,4:0,32 # unified banked L2 data cache config  {<nsets>:<bsize>:<assoc>,<rep>:<wr>:<alloc>:<wr_alloc>,<mshr>:<N>:<merge>,<mq>}
-gpgpu_cache:dl2_texture_only                    0 # L2 cache used for texture only
-gpgpu_n_mem                            6 # number of memory modules (e.g. memory controllers) in gpu
-gpgpu_n_sub_partition_per_mchannel                    2 # number of memory subpartition in each memory module
-gpgpu_n_mem_per_ctrlr                    2 # number of memory chips per memory controller
-gpgpu_memlatency_stat                   14 # track and display latency statistics 0x2 enables MC, 0x4 enables queue logs
-gpgpu_frfcfs_dram_sched_queue_size                   16 # 0 = unlimited (default); # entries per chip
-gpgpu_dram_return_queue_size                  116 # 0 = unlimited (default); # entries per chip
-gpgpu_dram_buswidth                    4 # default = 4 bytes (8 bytes per cycle at DDR)
-gpgpu_dram_burst_length                    8 # Burst length of each DRAM request (default = 4 data bus cycle)
-dram_data_command_freq_ratio                    4 # Frequency ratio between DRAM data bus and command bus (default = 2 times, i.e. DDR)
-gpgpu_dram_timing_opt nbk=16:CCD=2:RRD=6:RCD=12:RAS=28:RP=12:RC=40: CL=12:WL=4:CDLR=5:WR=12:nbkgrp=4:CCDL=3:RTPL=2 # DRAM timing parameters = {nbk:tCCD:tRRD:tRCD:tRAS:tRP:tRC:CL:WL:tCDLR:tWR:nbkgrp:tCCDL:tRTPL}
-rop_latency                          120 # ROP queue latency (default 85)
-dram_latency                         100 # DRAM latency (default 30)
-gpgpu_mem_addr_mapping dramid@8;00000000.00000000.00000000.00000000.0000RRRR.RRRRRRRR.BBBCCCCB.CCSSSSSS # mapping memory address to dram model {dramid@<start bit>;<memory address map>}
-gpgpu_mem_addr_test                    0 # run sweep test to check address mapping for aliased address
-gpgpu_mem_address_mask                    1 # 0 = old addressing mask, 1 = new addressing mask, 2 = new add. mask + flipped bank sel and chip sel bits
-gpuwattch_xml_file  gpuwattch_gtx480.xml # GPUWattch XML file
-power_simulation_enabled                    0 # Turn on power simulator (1=On, 0=Off)
-power_per_cycle_dump                    0 # Dump detailed power output each cycle
-power_trace_enabled                    0 # produce a file for the power trace (1=On, 0=Off)
-power_trace_zlevel                     6 # Compression level of the power trace output log (0=no comp, 9=highest)
-steady_power_levels_enabled                    0 # produce a file for the steady power levels (1=On, 0=Off)
-steady_state_definition                  8:4 # allowed deviation:number of samples
-gpgpu_max_cycle                        0 # terminates gpu simulation early (0 = no limit)
-gpgpu_max_insn                         0 # terminates gpu simulation early (0 = no limit)
-gpgpu_max_cta                          0 # terminates gpu simulation early (0 = no limit)
-gpgpu_runtime_stat                   500 # display runtime statistics such as dram utilization {<freq>:<flag>}
-liveness_message_freq                    1 # Minimum number of seconds between simulation liveness messages (0 = always print)
-gpgpu_flush_l1_cache                    0 # Flush L1 cache at the end of each kernel call
-gpgpu_flush_l2_cache                    0 # Flush L2 cache at the end of each kernel call
-gpgpu_deadlock_detect                    1 # Stop the simulation at deadlock (1=on (default), 0=off)
-gpgpu_ptx_instruction_classification                    0 # if enabled will classify ptx instruction types per kernel (Max 255 kernels now)
-gpgpu_ptx_sim_mode                     0 # Select between Performance (default) or Functional simulation (1)
-gpgpu_clock_domains 700.0:700.0:700.0:924.0 # Clock Domain Frequencies in MhZ {<Core Clock>:<ICNT Clock>:<L2 Clock>:<DRAM Clock>}
-gpgpu_max_concurrent_kernel                    8 # maximum kernels that can run concurrently on GPU
-gpgpu_cflog_interval                    0 # Interval between each snapshot in control flow logger
-visualizer_enabled                     0 # Turn on visualizer output (1=On, 0=Off)
-visualizer_outputfile                 NULL # Specifies the output log file for visualizer
-visualizer_zlevel                      6 # Compression level of the visualizer output log (0=no comp, 9=highest)
-trace_enabled                          0 # Turn on traces
-trace_components                    none # comma seperated list of traces to enable. Complete list found in trace_streams.tup. Default none
-trace_sampling_core                    0 # The core which is printed using CORE_DPRINTF. Default 0
-trace_sampling_memory_partition                   -1 # The memory partition which is printed using MEMPART_DPRINTF. Default -1 (i.e. all)
-enable_ptx_file_line_stats                    1 # Turn on PTX source line statistic profiling. (1 = On)
-ptx_line_stats_filename gpgpu_inst_stats.txt # Output file for PTX source line statistics.
-save_embedded_ptx                      0 # saves ptx files embedded in binary as <n>.ptx
-keep                                   0 # keep intermediate files created by GPGPU-Sim when interfacing with external programs
-gpgpu_ptx_save_converted_ptxplus                    0 # Saved converted ptxplus to a file
-ptx_opcode_latency_int         4,13,4,5,145 # Opcode latencies for integers <ADD,MAX,MUL,MAD,DIV>Default 1,1,19,25,145
-ptx_opcode_latency_fp          4,13,4,5,39 # Opcode latencies for single precision floating points <ADD,MAX,MUL,MAD,DIV>Default 1,1,1,1,30
-ptx_opcode_latency_dp         8,19,8,8,330 # Opcode latencies for double precision floating points <ADD,MAX,MUL,MAD,DIV>Default 8,8,8,8,335
-ptx_opcode_initiation_int            1,2,2,1,8 # Opcode initiation intervals for integers <ADD,MAX,MUL,MAD,DIV>Default 1,1,4,4,32
-ptx_opcode_initiation_fp            1,2,1,1,4 # Opcode initiation intervals for single precision floating points <ADD,MAX,MUL,MAD,DIV>Default 1,1,1,1,5
-ptx_opcode_initiation_dp         8,16,8,8,130 # Opcode initiation intervals for double precision floating points <ADD,MAX,MUL,MAD,DIV>Default 8,8,8,8,130
DRAM Timing Options:
nbk                                    16 # number of banks
CCD                                     2 # column to column delay
RRD                                     6 # minimal delay between activation of rows in different banks
RCD                                    12 # row to column delay
RAS                                    28 # time needed to activate row
RP                                     12 # time needed to precharge (deactivate) row
RC                                     40 # row cycle time
CDLR                                    5 # switching from write to read (changes tWTR)
WR                                     12 # last data-in to row precharge
CL                                     12 # CAS latency
WL                                      4 # Write latency
nbkgrp                                  4 # number of bank groups
CCDL                                    3 # column to column delay between accesses to different bank groups
RTPL                                    2 # read to precharge delay between accesses to different bank groups
Total number of memory sub partition = 12
addr_dec_mask[CHIP]  = 0000000000000000 	high:64 low:0
addr_dec_mask[BK]    = 000000000000e100 	high:16 low:8
addr_dec_mask[ROW]   = 000000000fff0000 	high:28 low:16
addr_dec_mask[COL]   = 0000000000001eff 	high:13 low:0
addr_dec_mask[BURST] = 000000000000003f 	high:6 low:0
sub_partition_id_mask = 0000000000000100
GPGPU-Sim uArch: clock freqs: 700000000.000000:700000000.000000:700000000.000000:924000000.000000
GPGPU-Sim uArch: clock periods: 0.00000000142857142857:0.00000000142857142857:0.00000000142857142857:0.00000000108225108225
*** Initializing Memory Statistics ***
GPGPU-Sim uArch: interconnect node map (shaderID+MemID to icntID)
GPGPU-Sim uArch: Memory nodes ID start from index: 15
GPGPU-Sim uArch:    0   1   2   3   4
GPGPU-Sim uArch:    5   6   7   8   9
GPGPU-Sim uArch:   10  11  12  13  14
GPGPU-Sim uArch:   15  16  17  18  19
GPGPU-Sim uArch:   20  21  22  23  24
GPGPU-Sim uArch:   25  26
GPGPU-Sim uArch: interconnect node reverse map (icntID to shaderID+MemID)
GPGPU-Sim uArch: Memory nodes start from ID: 15
GPGPU-Sim uArch:    0   1   2   3   4
GPGPU-Sim uArch:    5   6   7   8   9
GPGPU-Sim uArch:   10  11  12  13  14
GPGPU-Sim uArch:   15  16  17  18  19
GPGPU-Sim uArch:   20  21  22  23  24
GPGPU-Sim uArch:   25  26
e389dacb331e7fcddf4abf4a164344f1  /sciclone/data20/adwait/applications/benchmarks/CUDA/BlackScholes/gpgpu_ptx_sim__BlackScholes
GPGPU-Sim uArch: performance model initialization complete.
GPGPU-Sim PTX: __cudaRegisterFatBinary, fat_cubin_handle = 1, filename=BlackScholes.cu
self exe links to: /sciclone/data20/adwait/applications/benchmarks/CUDA/BlackScholes/gpgpu_ptx_sim__BlackScholes
Running md5sum using "md5sum /sciclone/data20/adwait/applications/benchmarks/CUDA/BlackScholes/gpgpu_ptx_sim__BlackScholes "
Parsing file _cuobjdump_complete_output_RosauJ
######### cuobjdump parser ########
## Adding new section ELF
Adding arch: sm_20
Adding identifier: BlackScholes.cu
## Adding new section PTX
Adding ptx filename: _cuobjdump_1.ptx
Adding arch: sm_20
Adding identifier: BlackScholes.cu
Done parsing!!!
GPGPU-Sim PTX: __cudaRegisterFunction _Z15BlackScholesGPUPfS_S_S_S_ffi : hostFun 0x0x405752, fat_cubin_handle = 1
GPGPU-Sim PTX: instruction assembly for function '_Z15BlackScholesGPUPfS_S_S_S_ffi'...   done.
GPGPU-Sim PTX: finding reconvergence points for '_Z15BlackScholesGPUPfS_S_S_S_ffi'...
GPGPU-Sim PTX: Finding dominators for '_Z15BlackScholesGPUPfS_S_S_S_ffi'...
GPGPU-Sim PTX: Finding immediate dominators for '_Z15BlackScholesGPUPfS_S_S_S_ffi'...
GPGPU-Sim PTX: Finding postdominators for '_Z15BlackScholesGPUPfS_S_S_S_ffi'...
GPGPU-Sim PTX: Finding immediate postdominators for '_Z15BlackScholesGPUPfS_S_S_S_ffi'...
GPGPU-Sim PTX: pre-decoding instructions for '_Z15BlackScholesGPUPfS_S_S_S_ffi'...
GPGPU-Sim PTX: reconvergence points for _Z15BlackScholesGPUPfS_S_S_S_ffi...
GPGPU-Sim PTX:  1 (potential) branch divergence @  PC=0x040 (_1.ptx:76) @%p1 bra $Lt_0_2818;
GPGPU-Sim PTX:    immediate post dominator      @  PC=0x3f8 (_1.ptx:200) exit;
GPGPU-Sim PTX:  2 (potential) branch divergence @  PC=0x3f0 (_1.ptx:197) @%p4 bra $Lt_0_3330;
GPGPU-Sim PTX:    immediate post dominator      @  PC=0x3f8 (_1.ptx:200) exit;
GPGPU-Sim PTX: ... end of reconvergence points for _Z15BlackScholesGPUPfS_S_S_S_ffi
GPGPU-Sim PTX: ... done pre-decoding instructions for '_Z15BlackScholesGPUPfS_S_S_S_ffi'.
GPGPU-Sim PTX: finished parsing EMBEDDED .ptx file _1.ptx
Adding _cuobjdump_1.ptx with cubin handle 1
GPGPU-Sim PTX: extracting embedded .ptx to temporary file "_ptx_DOt1fr"
Running: cat _ptx_DOt1fr | sed 's/.version 1.5/.version 1.4/' | sed 's/, texmode_independent//' | sed 's/\(\.extern \.const\[1\] .b8 \w\+\)\[\]/\1\[1\]/' | sed 's/const\[.\]/const\[0\]/g' > _ptx2_jrjJn9
GPGPU-Sim PTX: generating ptxinfo using "$CUDA_INSTALL_PATH/bin/ptxas --gpu-name=sm_20 -v _ptx2_jrjJn9 --output-file  /dev/null 2> _ptx_DOt1frinfo"
GPGPU-Sim PTX: Kernel '_Z15BlackScholesGPUPfS_S_S_S_ffi' : regs=31, lmem=0, smem=0, cmem=128
GPGPU-Sim PTX: removing ptxinfo using "rm -f _ptx_DOt1fr _ptx2_jrjJn9 _ptx_DOt1frinfo"
GPGPU-Sim PTX: loading globals with explicit initializers... 
GPGPU-Sim PTX: finished loading globals (0 bytes total).
GPGPU-Sim PTX: loading constants with explicit initializers...  done.
Initializing data...
...allocating CPU memory for options.
...allocating GPU memory for options.
...generating input data in CPU mem.
...copying input data to GPU mem.
Data init done.
Executing Black-Scholes GPU kernel (1 iterations)...
GPGPU-Sim: synchronize waiting for inactive GPU simulation
GPGPU-Sim API: Stream Manager State
GPGPU-Sim: detected inactive GPU simulation thread

GPGPU-Sim PTX: cudaLaunch for 0x0x405752 (mode=performance simulation) on stream 0
GPGPU-Sim PTX: pushing kernel '_Z15BlackScholesGPUPfS_S_S_S_ffi' to stream 0, gridDim= (480,1,1) blockDim = (128,1,1) 
kernel '_Z15BlackScholesGPUPfS_S_S_S_ffi' transfer to GPU hardware scheduler
GPGPU-Sim uArch: Shader 1 bind to kernel 1 '_Z15BlackScholesGPUPfS_S_S_S_ffi'
GPGPU-Sim uArch: CTA/core = 8, limited by: regs cta_limit
GPGPU-Sim uArch: core:  1, cta: 0 initialized @(1,0)
GPGPU-Sim uArch: Shader 2 bind to kernel 1 '_Z15BlackScholesGPUPfS_S_S_S_ffi'
GPGPU-Sim uArch: core:  2, cta: 0 initialized @(1,0)
GPGPU-Sim uArch: Shader 3 bind to kernel 1 '_Z15BlackScholesGPUPfS_S_S_S_ffi'
GPGPU-Sim uArch: core:  3, cta: 0 initialized @(1,0)
GPGPU-Sim uArch: Shader 4 bind to kernel 1 '_Z15BlackScholesGPUPfS_S_S_S_ffi'
GPGPU-Sim uArch: core:  4, cta: 0 initialized @(1,0)
GPGPU-Sim uArch: Shader 5 bind to kernel 1 '_Z15BlackScholesGPUPfS_S_S_S_ffi'
GPGPU-Sim uArch: core:  5, cta: 0 initialized @(1,0)
GPGPU-Sim uArch: Shader 6 bind to kernel 1 '_Z15BlackScholesGPUPfS_S_S_S_ffi'
GPGPU-Sim uArch: core:  6, cta: 0 initialized @(1,0)
GPGPU-Sim uArch: Shader 7 bind to kernel 1 '_Z15BlackScholesGPUPfS_S_S_S_ffi'
GPGPU-Sim uArch: core:  7, cta: 0 initialized @(1,0)
GPGPU-Sim uArch: Shader 8 bind to kernel 1 '_Z15BlackScholesGPUPfS_S_S_S_ffi'
GPGPU-Sim uArch: core:  8, cta: 0 initialized @(1,0)
GPGPU-Sim uArch: Shader 9 bind to kernel 1 '_Z15BlackScholesGPUPfS_S_S_S_ffi'
GPGPU-Sim uArch: core:  9, cta: 0 initialized @(1,0)
GPGPU-Sim uArch: Shader 10 bind to kernel 1 '_Z15BlackScholesGPUPfS_S_S_S_ffi'
GPGPU-Sim uArch: core: 10, cta: 0 initialized @(1,0)
GPGPU-Sim uArch: Shader 11 bind to kernel 1 '_Z15BlackScholesGPUPfS_S_S_S_ffi'
GPGPU-Sim uArch: core: 11, cta: 0 initialized @(1,0)
GPGPU-Sim uArch: Shader 12 bind to kernel 1 '_Z15BlackScholesGPUPfS_S_S_S_ffi'
GPGPU-Sim uArch: core: 12, cta: 0 initialized @(1,0)
GPGPU-Sim uArch: Shader 13 bind to kernel 1 '_Z15BlackScholesGPUPfS_S_S_S_ffi'
GPGPU-Sim uArch: core: 13, cta: 0 initialized @(1,0)
GPGPU-Sim uArch: Shader 14 bind to kernel 1 '_Z15BlackScholesGPUPfS_S_S_S_ffi'
GPGPU-Sim uArch: core: 14, cta: 0 initialized @(1,0)
GPGPU-Sim uArch: Shader 0 bind to kernel 1 '_Z15BlackScholesGPUPfS_S_S_S_ffi'
GPGPU-Sim uArch: core:  0, cta: 0 initialized @(1,0)
GPGPU-Sim uArch: core:  1, cta: 1 initialized @(2,0)
GPGPU-Sim uArch: core:  2, cta: 1 initialized @(2,0)
GPGPU-Sim uArch: core:  3, cta: 1 initialized @(2,0)
GPGPU-Sim uArch: core:  4, cta: 1 initialized @(2,0)
GPGPU-Sim uArch: core:  5, cta: 1 initialized @(2,0)
GPGPU-Sim uArch: core:  6, cta: 1 initialized @(2,0)
GPGPU-Sim uArch: core:  7, cta: 1 initialized @(2,0)
GPGPU-Sim uArch: core:  8, cta: 1 initialized @(2,0)
GPGPU-Sim uArch: core:  9, cta: 1 initialized @(2,0)
GPGPU-Sim uArch: core: 10, cta: 1 initialized @(2,0)
GPGPU-Sim uArch: core: 11, cta: 1 initialized @(2,0)
GPGPU-Sim uArch: core: 12, cta: 1 initialized @(2,0)
GPGPU-Sim uArch: core: 13, cta: 1 initialized @(2,0)
GPGPU-Sim uArch: core: 14, cta: 1 initialized @(2,0)
GPGPU-Sim uArch: core:  0, cta: 1 initialized @(2,0)
GPGPU-Sim uArch: core:  1, cta: 2 initialized @(3,0)
GPGPU-Sim uArch: core:  2, cta: 2 initialized @(3,0)
GPGPU-Sim uArch: core:  3, cta: 2 initialized @(3,0)
GPGPU-Sim uArch: core:  4, cta: 2 initialized @(3,0)
GPGPU-Sim uArch: core:  5, cta: 2 initialized @(3,0)
GPGPU-Sim uArch: core:  6, cta: 2 initialized @(3,0)
GPGPU-Sim uArch: core:  7, cta: 2 initialized @(3,0)
GPGPU-Sim uArch: core:  8, cta: 2 initialized @(3,0)
GPGPU-Sim uArch: core:  9, cta: 2 initialized @(3,0)
GPGPU-Sim uArch: core: 10, cta: 2 initialized @(3,0)
GPGPU-Sim uArch: core: 11, cta: 2 initialized @(3,0)
GPGPU-Sim uArch: core: 12, cta: 2 initialized @(3,0)
GPGPU-Sim uArch: core: 13, cta: 2 initialized @(3,0)
GPGPU-Sim uArch: core: 14, cta: 2 initialized @(3,0)
GPGPU-Sim uArch: core:  0, cta: 2 initialized @(3,0)
GPGPU-Sim uArch: core:  1, cta: 3 initialized @(4,0)
GPGPU-Sim uArch: core:  2, cta: 3 initialized @(4,0)
GPGPU-Sim uArch: core:  3, cta: 3 initialized @(4,0)
GPGPU-Sim uArch: core:  4, cta: 3 initialized @(4,0)
GPGPU-Sim uArch: core:  5, cta: 3 initialized @(4,0)
GPGPU-Sim uArch: core:  6, cta: 3 initialized @(4,0)
GPGPU-Sim uArch: core:  7, cta: 3 initialized @(4,0)
GPGPU-Sim uArch: core:  8, cta: 3 initialized @(4,0)
GPGPU-Sim uArch: core:  9, cta: 3 initialized @(4,0)
GPGPU-Sim uArch: core: 10, cta: 3 initialized @(4,0)
GPGPU-Sim uArch: core: 11, cta: 3 initialized @(4,0)
GPGPU-Sim uArch: core: 12, cta: 3 initialized @(4,0)
GPGPU-Sim uArch: core: 13, cta: 3 initialized @(4,0)
GPGPU-Sim uArch: core: 14, cta: 3 initialized @(4,0)
GPGPU-Sim uArch: core:  0, cta: 3 initialized @(4,0)
GPGPU-Sim uArch: core:  1, cta: 4 initialized @(5,0)
GPGPU-Sim uArch: core:  2, cta: 4 initialized @(5,0)
GPGPU-Sim uArch: core:  3, cta: 4 initialized @(5,0)
GPGPU-Sim uArch: core:  4, cta: 4 initialized @(5,0)
GPGPU-Sim uArch: core:  5, cta: 4 initialized @(5,0)
GPGPU-Sim uArch: core:  6, cta: 4 initialized @(5,0)
GPGPU-Sim uArch: core:  7, cta: 4 initialized @(5,0)
GPGPU-Sim uArch: core:  8, cta: 4 initialized @(5,0)
GPGPU-Sim uArch: core:  9, cta: 4 initialized @(5,0)
GPGPU-Sim uArch: core: 10, cta: 4 initialized @(5,0)
GPGPU-Sim uArch: core: 11, cta: 4 initialized @(5,0)
GPGPU-Sim uArch: core: 12, cta: 4 initialized @(5,0)
GPGPU-Sim uArch: core: 13, cta: 4 initialized @(5,0)
GPGPU-Sim uArch: core: 14, cta: 4 initialized @(5,0)
GPGPU-Sim uArch: core:  0, cta: 4 initialized @(5,0)
GPGPU-Sim uArch: core:  1, cta: 5 initialized @(6,0)
GPGPU-Sim uArch: core:  2, cta: 5 initialized @(6,0)
GPGPU-Sim uArch: core:  3, cta: 5 initialized @(6,0)
GPGPU-Sim uArch: core:  4, cta: 5 initialized @(6,0)
GPGPU-Sim uArch: core:  5, cta: 5 initialized @(6,0)
GPGPU-Sim uArch: core:  6, cta: 5 initialized @(6,0)
GPGPU-Sim uArch: core:  7, cta: 5 initialized @(6,0)
GPGPU-Sim uArch: core:  8, cta: 5 initialized @(6,0)
GPGPU-Sim uArch: core:  9, cta: 5 initialized @(6,0)
GPGPU-Sim uArch: core: 10, cta: 5 initialized @(6,0)
GPGPU-Sim uArch: core: 11, cta: 5 initialized @(6,0)
GPGPU-Sim uArch: core: 12, cta: 5 initialized @(6,0)
GPGPU-Sim uArch: core: 13, cta: 5 initialized @(6,0)
GPGPU-Sim uArch: core: 14, cta: 5 initialized @(6,0)
GPGPU-Sim uArch: core:  0, cta: 5 initialized @(6,0)
GPGPU-Sim uArch: core:  1, cta: 6 initialized @(7,0)
GPGPU-Sim uArch: core:  2, cta: 6 initialized @(7,0)
GPGPU-Sim uArch: core:  3, cta: 6 initialized @(7,0)
GPGPU-Sim uArch: core:  4, cta: 6 initialized @(7,0)
GPGPU-Sim uArch: core:  5, cta: 6 initialized @(7,0)
GPGPU-Sim uArch: core:  6, cta: 6 initialized @(7,0)
GPGPU-Sim uArch: core:  7, cta: 6 initialized @(7,0)
GPGPU-Sim uArch: core:  8, cta: 6 initialized @(7,0)
GPGPU-Sim uArch: core:  9, cta: 6 initialized @(7,0)
GPGPU-Sim uArch: core: 10, cta: 6 initialized @(7,0)
GPGPU-Sim uArch: core: 11, cta: 6 initialized @(7,0)
GPGPU-Sim uArch: core: 12, cta: 6 initialized @(7,0)
GPGPU-Sim uArch: core: 13, cta: 6 initialized @(7,0)
GPGPU-Sim uArch: core: 14, cta: 6 initialized @(7,0)
GPGPU-Sim uArch: core:  0, cta: 6 initialized @(7,0)
GPGPU-Sim uArch: core:  1, cta: 7 initialized @(8,0)
GPGPU-Sim uArch: core:  2, cta: 7 initialized @(8,0)
GPGPU-Sim uArch: core:  3, cta: 7 initialized @(8,0)
GPGPU-Sim uArch: core:  4, cta: 7 initialized @(8,0)
GPGPU-Sim uArch: core:  5, cta: 7 initialized @(8,0)
GPGPU-Sim uArch: core:  6, cta: 7 initialized @(8,0)
GPGPU-Sim uArch: core:  7, cta: 7 initialized @(8,0)
GPGPU-Sim uArch: core:  8, cta: 7 initialized @(8,0)
GPGPU-Sim uArch: core:  9, cta: 7 initialized @(8,0)
GPGPU-Sim uArch: core: 10, cta: 7 initialized @(8,0)
GPGPU-Sim uArch: core: 11, cta: 7 initialized @(8,0)
GPGPU-Sim uArch: core: 12, cta: 7 initialized @(8,0)
GPGPU-Sim uArch: core: 13, cta: 7 initialized @(8,0)
GPGPU-Sim uArch: core: 14, cta: 7 initialized @(8,0)
GPGPU-Sim uArch: core:  0, cta: 7 initialized @(8,0)
GPGPU-Sim PTX: 100000 instructions simulated : ctaid=(27,0,0) tid=(95,0,0)
GPGPU-Sim uArch: cycles simulated: 500  inst.: 92160 (ipc=184.3) sim_rate=46080 (inst/sec) elapsed = 0:0:00:02 / Sun Feb 28 21:43:07 2016
GPGPU-Sim PTX: 200000 instructions simulated : ctaid=(94,0,0) tid=(95,0,0)
GPGPU-Sim PTX: 300000 instructions simulated : ctaid=(53,0,0) tid=(127,0,0)
GPGPU-Sim PTX: 400000 instructions simulated : ctaid=(70,0,0) tid=(127,0,0)
GPGPU-Sim uArch: cycles simulated: 1500  inst.: 423072 (ipc=282.0) sim_rate=141024 (inst/sec) elapsed = 0:0:00:03 / Sun Feb 28 21:43:08 2016
GPGPU-Sim PTX: 500000 instructions simulated : ctaid=(33,0,0) tid=(31,0,0)
GPGPU-Sim PTX: 600000 instructions simulated : ctaid=(63,0,0) tid=(95,0,0)
GPGPU-Sim PTX: 700000 instructions simulated : ctaid=(34,0,0) tid=(95,0,0)
GPGPU-Sim PTX: 800000 instructions simulated : ctaid=(93,0,0) tid=(31,0,0)
GPGPU-Sim PTX: 900000 instructions simulated : ctaid=(11,0,0) tid=(127,0,0)
GPGPU-Sim uArch: cycles simulated: 3000  inst.: 921536 (ipc=307.2) sim_rate=230384 (inst/sec) elapsed = 0:0:00:04 / Sun Feb 28 21:43:09 2016
GPGPU-Sim PTX: 1000000 instructions simulated : ctaid=(16,0,0) tid=(63,0,0)
GPGPU-Sim PTX: 1100000 instructions simulated : ctaid=(70,0,0) tid=(127,0,0)
GPGPU-Sim PTX: 1200000 instructions simulated : ctaid=(38,0,0) tid=(31,0,0)
GPGPU-Sim PTX: 1300000 instructions simulated : ctaid=(37,0,0) tid=(31,0,0)
GPGPU-Sim PTX: 1400000 instructions simulated : ctaid=(57,0,0) tid=(127,0,0)
GPGPU-Sim PTX: 1500000 instructions simulated : ctaid=(59,0,0) tid=(31,0,0)
GPGPU-Sim uArch: cycles simulated: 4000  inst.: 1546368 (ipc=386.6) sim_rate=309273 (inst/sec) elapsed = 0:0:00:05 / Sun Feb 28 21:43:10 2016
GPGPU-Sim PTX: 1600000 instructions simulated : ctaid=(52,0,0) tid=(95,0,0)
GPGPU-Sim PTX: 1700000 instructions simulated : ctaid=(105,0,0) tid=(127,0,0)
GPGPU-Sim PTX: 1800000 instructions simulated : ctaid=(97,0,0) tid=(63,0,0)
GPGPU-Sim uArch: cycles simulated: 5000  inst.: 1841248 (ipc=368.2) sim_rate=306874 (inst/sec) elapsed = 0:0:00:06 / Sun Feb 28 21:43:11 2016
GPGPU-Sim PTX: 1900000 instructions simulated : ctaid=(99,0,0) tid=(31,0,0)
GPGPU-Sim PTX: 2000000 instructions simulated : ctaid=(6,0,0) tid=(31,0,0)
GPGPU-Sim PTX: 2100000 instructions simulated : ctaid=(6,0,0) tid=(127,0,0)
GPGPU-Sim PTX: 2200000 instructions simulated : ctaid=(3,0,0) tid=(31,0,0)
GPGPU-Sim PTX: 2300000 instructions simulated : ctaid=(7,0,0) tid=(63,0,0)
GPGPU-Sim PTX: 2400000 instructions simulated : ctaid=(25,0,0) tid=(31,0,0)
GPGPU-Sim uArch: cycles simulated: 6000  inst.: 2394880 (ipc=399.1) sim_rate=342125 (inst/sec) elapsed = 0:0:00:07 / Sun Feb 28 21:43:12 2016
GPGPU-Sim PTX: 2500000 instructions simulated : ctaid=(18,0,0) tid=(63,0,0)
GPGPU-Sim PTX: 2600000 instructions simulated : ctaid=(39,0,0) tid=(127,0,0)
GPGPU-Sim PTX: 2700000 instructions simulated : ctaid=(18,0,0) tid=(127,0,0)
GPGPU-Sim PTX: 2800000 instructions simulated : ctaid=(70,0,0) tid=(95,0,0)
GPGPU-Sim PTX: 2900000 instructions simulated : ctaid=(17,0,0) tid=(127,0,0)
GPGPU-Sim PTX: 3000000 instructions simulated : ctaid=(71,0,0) tid=(63,0,0)
GPGPU-Sim PTX: 3100000 instructions simulated : ctaid=(96,0,0) tid=(95,0,0)
GPGPU-Sim uArch: cycles simulated: 7000  inst.: 3065824 (ipc=438.0) sim_rate=383228 (inst/sec) elapsed = 0:0:00:08 / Sun Feb 28 21:43:13 2016
GPGPU-Sim PTX: 3200000 instructions simulated : ctaid=(10,0,0) tid=(95,0,0)
GPGPU-Sim PTX: 3300000 instructions simulated : ctaid=(96,0,0) tid=(31,0,0)
GPGPU-Sim PTX: 3400000 instructions simulated : ctaid=(3,0,0) tid=(95,0,0)
GPGPU-Sim PTX: 3500000 instructions simulated : ctaid=(113,0,0) tid=(63,0,0)
GPGPU-Sim PTX: 3600000 instructions simulated : ctaid=(31,0,0) tid=(95,0,0)
GPGPU-Sim PTX: 3700000 instructions simulated : ctaid=(14,0,0) tid=(127,0,0)
GPGPU-Sim PTX: 3800000 instructions simulated : ctaid=(81,0,0) tid=(31,0,0)
GPGPU-Sim PTX: 3900000 instructions simulated : ctaid=(58,0,0) tid=(31,0,0)
GPGPU-Sim uArch: cycles simulated: 8500  inst.: 3936320 (ipc=463.1) sim_rate=437368 (inst/sec) elapsed = 0:0:00:09 / Sun Feb 28 21:43:14 2016
GPGPU-Sim PTX: 4000000 instructions simulated : ctaid=(0,0,0) tid=(127,0,0)
GPGPU-Sim PTX: 4100000 instructions simulated : ctaid=(12,0,0) tid=(31,0,0)
GPGPU-Sim PTX: 4200000 instructions simulated : ctaid=(96,0,0) tid=(31,0,0)
GPGPU-Sim PTX: 4300000 instructions simulated : ctaid=(90,0,0) tid=(95,0,0)
GPGPU-Sim PTX: 4400000 instructions simulated : ctaid=(40,0,0) tid=(31,0,0)
GPGPU-Sim PTX: 4500000 instructions simulated : ctaid=(27,0,0) tid=(31,0,0)
GPGPU-Sim uArch: cycles simulated: 9500  inst.: 4467648 (ipc=470.3) sim_rate=446764 (inst/sec) elapsed = 0:0:00:10 / Sun Feb 28 21:43:15 2016
GPGPU-Sim PTX: 4600000 instructions simulated : ctaid=(26,0,0) tid=(31,0,0)
GPGPU-Sim PTX: 4700000 instructions simulated : ctaid=(55,0,0) tid=(31,0,0)
GPGPU-Sim PTX: 4800000 instructions simulated : ctaid=(59,0,0) tid=(31,0,0)
GPGPU-Sim PTX: 4900000 instructions simulated : ctaid=(54,0,0) tid=(31,0,0)
GPGPU-Sim PTX: 5000000 instructions simulated : ctaid=(80,0,0) tid=(31,0,0)
GPGPU-Sim uArch: cycles simulated: 10500  inst.: 5049568 (ipc=480.9) sim_rate=459051 (inst/sec) elapsed = 0:0:00:11 / Sun Feb 28 21:43:16 2016
GPGPU-Sim PTX: 5100000 instructions simulated : ctaid=(53,0,0) tid=(63,0,0)
GPGPU-Sim PTX: 5200000 instructions simulated : ctaid=(78,0,0) tid=(63,0,0)
GPGPU-Sim PTX: 5300000 instructions simulated : ctaid=(3,0,0) tid=(127,0,0)
GPGPU-Sim PTX: 5400000 instructions simulated : ctaid=(56,0,0) tid=(63,0,0)
GPGPU-Sim PTX: 5500000 instructions simulated : ctaid=(9,0,0) tid=(95,0,0)
GPGPU-Sim PTX: 5600000 instructions simulated : ctaid=(3,0,0) tid=(31,0,0)
GPGPU-Sim uArch: cycles simulated: 11500  inst.: 5654208 (ipc=491.7) sim_rate=471184 (inst/sec) elapsed = 0:0:00:12 / Sun Feb 28 21:43:17 2016
GPGPU-Sim PTX: 5700000 instructions simulated : ctaid=(60,0,0) tid=(95,0,0)
GPGPU-Sim PTX: 5800000 instructions simulated : ctaid=(54,0,0) tid=(95,0,0)
GPGPU-Sim PTX: 5900000 instructions simulated : ctaid=(51,0,0) tid=(95,0,0)
GPGPU-Sim PTX: 6000000 instructions simulated : ctaid=(38,0,0) tid=(31,0,0)
GPGPU-Sim PTX: 6100000 instructions simulated : ctaid=(67,0,0) tid=(127,0,0)
GPGPU-Sim PTX: 6200000 instructions simulated : ctaid=(82,0,0) tid=(63,0,0)
GPGPU-Sim uArch: cycles simulated: 12500  inst.: 6237504 (ipc=499.0) sim_rate=479808 (inst/sec) elapsed = 0:0:00:13 / Sun Feb 28 21:43:18 2016
GPGPU-Sim PTX: 6300000 instructions simulated : ctaid=(30,0,0) tid=(63,0,0)
GPGPU-Sim PTX: 6400000 instructions simulated : ctaid=(79,0,0) tid=(63,0,0)
GPGPU-Sim PTX: 6500000 instructions simulated : ctaid=(40,0,0) tid=(63,0,0)
GPGPU-Sim PTX: 6600000 instructions simulated : ctaid=(40,0,0) tid=(31,0,0)
GPGPU-Sim PTX: 6700000 instructions simulated : ctaid=(87,0,0) tid=(31,0,0)
GPGPU-Sim PTX: 6800000 instructions simulated : ctaid=(41,0,0) tid=(31,0,0)
GPGPU-Sim uArch: cycles simulated: 13500  inst.: 6828096 (ipc=505.8) sim_rate=487721 (inst/sec) elapsed = 0:0:00:14 / Sun Feb 28 21:43:19 2016
GPGPU-Sim PTX: 6900000 instructions simulated : ctaid=(8,0,0) tid=(127,0,0)
GPGPU-Sim PTX: 7000000 instructions simulated : ctaid=(14,0,0) tid=(127,0,0)
GPGPU-Sim PTX: 7100000 instructions simulated : ctaid=(13,0,0) tid=(127,0,0)
GPGPU-Sim PTX: 7200000 instructions simulated : ctaid=(74,0,0) tid=(127,0,0)
GPGPU-Sim PTX: 7300000 instructions simulated : ctaid=(11,0,0) tid=(63,0,0)
GPGPU-Sim PTX: 7400000 instructions simulated : ctaid=(30,0,0) tid=(127,0,0)
GPGPU-Sim PTX: 7500000 instructions simulated : ctaid=(70,0,0) tid=(127,0,0)
GPGPU-Sim PTX: 7600000 instructions simulated : ctaid=(37,0,0) tid=(95,0,0)
GPGPU-Sim PTX: 7700000 instructions simulated : ctaid=(74,0,0) tid=(31,0,0)
GPGPU-Sim uArch: cycles simulated: 15000  inst.: 7733216 (ipc=515.5) sim_rate=515547 (inst/sec) elapsed = 0:0:00:15 / Sun Feb 28 21:43:20 2016
GPGPU-Sim PTX: 7800000 instructions simulated : ctaid=(1,0,0) tid=(95,0,0)
GPGPU-Sim PTX: 7900000 instructions simulated : ctaid=(91,0,0) tid=(31,0,0)
GPGPU-Sim PTX: 8000000 instructions simulated : ctaid=(26,0,0) tid=(31,0,0)
GPGPU-Sim PTX: 8100000 instructions simulated : ctaid=(2,0,0) tid=(31,0,0)
GPGPU-Sim PTX: 8200000 instructions simulated : ctaid=(56,0,0) tid=(127,0,0)
GPGPU-Sim PTX: 8300000 instructions simulated : ctaid=(53,0,0) tid=(63,0,0)
GPGPU-Sim uArch: cycles simulated: 16000  inst.: 8334944 (ipc=520.9) sim_rate=520934 (inst/sec) elapsed = 0:0:00:16 / Sun Feb 28 21:43:21 2016
GPGPU-Sim PTX: 8400000 instructions simulated : ctaid=(49,0,0) tid=(95,0,0)
GPGPU-Sim PTX: 8500000 instructions simulated : ctaid=(76,0,0) tid=(95,0,0)
GPGPU-Sim PTX: 8600000 instructions simulated : ctaid=(27,0,0) tid=(95,0,0)
GPGPU-Sim PTX: 8700000 instructions simulated : ctaid=(25,0,0) tid=(31,0,0)
GPGPU-Sim PTX: 8800000 instructions simulated : ctaid=(5,0,0) tid=(127,0,0)
GPGPU-Sim PTX: 8900000 instructions simulated : ctaid=(31,0,0) tid=(63,0,0)
GPGPU-Sim uArch: cycles simulated: 17000  inst.: 8955872 (ipc=526.8) sim_rate=526816 (inst/sec) elapsed = 0:0:00:17 / Sun Feb 28 21:43:22 2016
GPGPU-Sim PTX: 9000000 instructions simulated : ctaid=(45,0,0) tid=(31,0,0)
GPGPU-Sim PTX: 9100000 instructions simulated : ctaid=(37,0,0) tid=(63,0,0)
GPGPU-Sim PTX: 9200000 instructions simulated : ctaid=(43,0,0) tid=(95,0,0)
GPGPU-Sim PTX: 9300000 instructions simulated : ctaid=(104,0,0) tid=(31,0,0)
GPGPU-Sim PTX: 9400000 instructions simulated : ctaid=(35,0,0) tid=(127,0,0)
GPGPU-Sim PTX: 9500000 instructions simulated : ctaid=(38,0,0) tid=(31,0,0)
GPGPU-Sim uArch: cycles simulated: 18000  inst.: 9545984 (ipc=530.3) sim_rate=530332 (inst/sec) elapsed = 0:0:00:18 / Sun Feb 28 21:43:23 2016
GPGPU-Sim PTX: 9600000 instructions simulated : ctaid=(48,0,0) tid=(95,0,0)
GPGPU-Sim PTX: 9700000 instructions simulated : ctaid=(114,0,0) tid=(31,0,0)
GPGPU-Sim PTX: 9800000 instructions simulated : ctaid=(11,0,0) tid=(127,0,0)
GPGPU-Sim PTX: 9900000 instructions simulated : ctaid=(36,0,0) tid=(127,0,0)
GPGPU-Sim PTX: 10000000 instructions simulated : ctaid=(97,0,0) tid=(31,0,0)
GPGPU-Sim PTX: 10100000 instructions simulated : ctaid=(31,0,0) tid=(63,0,0)
GPGPU-Sim uArch: cycles simulated: 19000  inst.: 10122048 (ipc=532.7) sim_rate=532739 (inst/sec) elapsed = 0:0:00:19 / Sun Feb 28 21:43:24 2016
GPGPU-Sim PTX: 10200000 instructions simulated : ctaid=(28,0,0) tid=(127,0,0)
GPGPU-Sim PTX: 10300000 instructions simulated : ctaid=(38,0,0) tid=(127,0,0)
GPGPU-Sim PTX: 10400000 instructions simulated : ctaid=(32,0,0) tid=(63,0,0)
GPGPU-Sim PTX: 10500000 instructions simulated : ctaid=(103,0,0) tid=(95,0,0)
GPGPU-Sim PTX: 10600000 instructions simulated : ctaid=(43,0,0) tid=(127,0,0)
GPGPU-Sim PTX: 10700000 instructions simulated : ctaid=(18,0,0) tid=(127,0,0)
GPGPU-Sim uArch: cycles simulated: 20000  inst.: 10725248 (ipc=536.3) sim_rate=536262 (inst/sec) elapsed = 0:0:00:20 / Sun Feb 28 21:43:25 2016
GPGPU-Sim PTX: 10800000 instructions simulated : ctaid=(99,0,0) tid=(31,0,0)
GPGPU-Sim PTX: 10900000 instructions simulated : ctaid=(93,0,0) tid=(95,0,0)
GPGPU-Sim PTX: 11000000 instructions simulated : ctaid=(41,0,0) tid=(127,0,0)
GPGPU-Sim PTX: 11100000 instructions simulated : ctaid=(27,0,0) tid=(95,0,0)
GPGPU-Sim PTX: 11200000 instructions simulated : ctaid=(80,0,0) tid=(31,0,0)
GPGPU-Sim PTX: 11300000 instructions simulated : ctaid=(59,0,0) tid=(31,0,0)
GPGPU-Sim uArch: cycles simulated: 21000  inst.: 11305696 (ipc=538.4) sim_rate=538366 (inst/sec) elapsed = 0:0:00:21 / Sun Feb 28 21:43:26 2016
GPGPU-Sim PTX: 11400000 instructions simulated : ctaid=(20,0,0) tid=(31,0,0)
GPGPU-Sim PTX: 11500000 instructions simulated : ctaid=(14,0,0) tid=(127,0,0)
GPGPU-Sim PTX: 11600000 instructions simulated : ctaid=(36,0,0) tid=(95,0,0)
GPGPU-Sim PTX: 11700000 instructions simulated : ctaid=(67,0,0) tid=(63,0,0)
GPGPU-Sim PTX: 11800000 instructions simulated : ctaid=(16,0,0) tid=(95,0,0)
GPGPU-Sim PTX: 11900000 instructions simulated : ctaid=(46,0,0) tid=(31,0,0)
GPGPU-Sim PTX: 12000000 instructions simulated : ctaid=(9,0,0) tid=(31,0,0)
GPGPU-Sim PTX: 12100000 instructions simulated : ctaid=(77,0,0) tid=(95,0,0)
GPGPU-Sim uArch: cycles simulated: 22500  inst.: 12152064 (ipc=540.1) sim_rate=552366 (inst/sec) elapsed = 0:0:00:22 / Sun Feb 28 21:43:27 2016
GPGPU-Sim PTX: 12200000 instructions simulated : ctaid=(45,0,0) tid=(63,0,0)
GPGPU-Sim PTX: 12300000 instructions simulated : ctaid=(33,0,0) tid=(95,0,0)
GPGPU-Sim PTX: 12400000 instructions simulated : ctaid=(15,0,0) tid=(127,0,0)
GPGPU-Sim PTX: 12500000 instructions simulated : ctaid=(53,0,0) tid=(63,0,0)
GPGPU-Sim PTX: 12600000 instructions simulated : ctaid=(76,0,0) tid=(31,0,0)
GPGPU-Sim PTX: 12700000 instructions simulated : ctaid=(41,0,0) tid=(31,0,0)
GPGPU-Sim uArch: cycles simulated: 23500  inst.: 12709600 (ipc=540.8) sim_rate=552591 (inst/sec) elapsed = 0:0:00:23 / Sun Feb 28 21:43:28 2016
GPGPU-Sim PTX: 12800000 instructions simulated : ctaid=(80,0,0) tid=(127,0,0)
GPGPU-Sim PTX: 12900000 instructions simulated : ctaid=(23,0,0) tid=(95,0,0)
GPGPU-Sim PTX: 13000000 instructions simulated : ctaid=(44,0,0) tid=(95,0,0)
GPGPU-Sim PTX: 13100000 instructions simulated : ctaid=(58,0,0) tid=(31,0,0)
GPGPU-Sim PTX: 13200000 instructions simulated : ctaid=(60,0,0) tid=(95,0,0)
GPGPU-Sim PTX: 13300000 instructions simulated : ctaid=(18,0,0) tid=(95,0,0)
GPGPU-Sim uArch: cycles simulated: 24500  inst.: 13276832 (ipc=541.9) sim_rate=553201 (inst/sec) elapsed = 0:0:00:24 / Sun Feb 28 21:43:29 2016
GPGPU-Sim PTX: 13400000 instructions simulated : ctaid=(54,0,0) tid=(31,0,0)
GPGPU-Sim PTX: 13500000 instructions simulated : ctaid=(37,0,0) tid=(63,0,0)
GPGPU-Sim PTX: 13600000 instructions simulated : ctaid=(38,0,0) tid=(95,0,0)
GPGPU-Sim PTX: 13700000 instructions simulated : ctaid=(14,0,0) tid=(95,0,0)
GPGPU-Sim PTX: 13800000 instructions simulated : ctaid=(97,0,0) tid=(95,0,0)
GPGPU-Sim PTX: 13900000 instructions simulated : ctaid=(43,0,0) tid=(63,0,0)
GPGPU-Sim uArch: cycles simulated: 25500  inst.: 13865248 (ipc=543.7) sim_rate=554609 (inst/sec) elapsed = 0:0:00:25 / Sun Feb 28 21:43:30 2016
GPGPU-Sim PTX: 14000000 instructions simulated : ctaid=(50,0,0) tid=(31,0,0)
GPGPU-Sim PTX: 14100000 instructions simulated : ctaid=(40,0,0) tid=(95,0,0)
GPGPU-Sim PTX: 14200000 instructions simulated : ctaid=(9,0,0) tid=(63,0,0)
GPGPU-Sim PTX: 14300000 instructions simulated : ctaid=(26,0,0) tid=(127,0,0)
GPGPU-Sim PTX: 14400000 instructions simulated : ctaid=(77,0,0) tid=(31,0,0)
GPGPU-Sim uArch: cycles simulated: 26500  inst.: 14452224 (ipc=545.4) sim_rate=555854 (inst/sec) elapsed = 0:0:00:26 / Sun Feb 28 21:43:31 2016
GPGPU-Sim PTX: 14500000 instructions simulated : ctaid=(29,0,0) tid=(31,0,0)
GPGPU-Sim PTX: 14600000 instructions simulated : ctaid=(103,0,0) tid=(31,0,0)
GPGPU-Sim PTX: 14700000 instructions simulated : ctaid=(36,0,0) tid=(31,0,0)
GPGPU-Sim PTX: 14800000 instructions simulated : ctaid=(81,0,0) tid=(95,0,0)
GPGPU-Sim PTX: 14900000 instructions simulated : ctaid=(51,0,0) tid=(63,0,0)
GPGPU-Sim PTX: 15000000 instructions simulated : ctaid=(29,0,0) tid=(63,0,0)
GPGPU-Sim PTX: 15100000 instructions simulated : ctaid=(33,0,0) tid=(63,0,0)
GPGPU-Sim PTX: 15200000 instructions simulated : ctaid=(95,0,0) tid=(63,0,0)
GPGPU-Sim PTX: 15300000 instructions simulated : ctaid=(0,0,0) tid=(95,0,0)
GPGPU-Sim uArch: cycles simulated: 28000  inst.: 15293088 (ipc=546.2) sim_rate=566410 (inst/sec) elapsed = 0:0:00:27 / Sun Feb 28 21:43:32 2016
GPGPU-Sim PTX: 15400000 instructions simulated : ctaid=(54,0,0) tid=(95,0,0)
GPGPU-Sim PTX: 15500000 instructions simulated : ctaid=(50,0,0) tid=(63,0,0)
GPGPU-Sim PTX: 15600000 instructions simulated : ctaid=(46,0,0) tid=(95,0,0)
GPGPU-Sim PTX: 15700000 instructions simulated : ctaid=(69,0,0) tid=(31,0,0)
GPGPU-Sim PTX: 15800000 instructions simulated : ctaid=(70,0,0) tid=(95,0,0)
GPGPU-Sim uArch: cycles simulated: 29000  inst.: 15834784 (ipc=546.0) sim_rate=565528 (inst/sec) elapsed = 0:0:00:28 / Sun Feb 28 21:43:33 2016
GPGPU-Sim PTX: 15900000 instructions simulated : ctaid=(50,0,0) tid=(95,0,0)
GPGPU-Sim PTX: 16000000 instructions simulated : ctaid=(27,0,0) tid=(95,0,0)
GPGPU-Sim PTX: 16100000 instructions simulated : ctaid=(2,0,0) tid=(127,0,0)
GPGPU-Sim PTX: 16200000 instructions simulated : ctaid=(26,0,0) tid=(127,0,0)
GPGPU-Sim PTX: 16300000 instructions simulated : ctaid=(35,0,0) tid=(63,0,0)
GPGPU-Sim PTX: 16400000 instructions simulated : ctaid=(39,0,0) tid=(31,0,0)
GPGPU-Sim uArch: cycles simulated: 30000  inst.: 16410592 (ipc=547.0) sim_rate=565882 (inst/sec) elapsed = 0:0:00:29 / Sun Feb 28 21:43:34 2016
GPGPU-Sim PTX: 16500000 instructions simulated : ctaid=(14,0,0) tid=(31,0,0)
GPGPU-Sim PTX: 16600000 instructions simulated : ctaid=(55,0,0) tid=(95,0,0)
GPGPU-Sim PTX: 16700000 instructions simulated : ctaid=(69,0,0) tid=(31,0,0)
GPGPU-Sim PTX: 16800000 instructions simulated : ctaid=(72,0,0) tid=(127,0,0)
GPGPU-Sim PTX: 16900000 instructions simulated : ctaid=(3,0,0) tid=(63,0,0)
GPGPU-Sim PTX: 17000000 instructions simulated : ctaid=(53,0,0) tid=(127,0,0)
GPGPU-Sim uArch: cycles simulated: 31000  inst.: 17010080 (ipc=548.7) sim_rate=567002 (inst/sec) elapsed = 0:0:00:30 / Sun Feb 28 21:43:35 2016
GPGPU-Sim PTX: 17100000 instructions simulated : ctaid=(11,0,0) tid=(63,0,0)
GPGPU-Sim PTX: 17200000 instructions simulated : ctaid=(45,0,0) tid=(63,0,0)
GPGPU-Sim PTX: 17300000 instructions simulated : ctaid=(53,0,0) tid=(31,0,0)
GPGPU-Sim PTX: 17400000 instructions simulated : ctaid=(40,0,0) tid=(31,0,0)
GPGPU-Sim PTX: 17500000 instructions simulated : ctaid=(30,0,0) tid=(95,0,0)
GPGPU-Sim PTX: 17600000 instructions simulated : ctaid=(33,0,0) tid=(63,0,0)
GPGPU-Sim uArch: cycles simulated: 32000  inst.: 17568000 (ipc=549.0) sim_rate=566709 (inst/sec) elapsed = 0:0:00:31 / Sun Feb 28 21:43:36 2016
GPGPU-Sim PTX: 17700000 instructions simulated : ctaid=(41,0,0) tid=(127,0,0)
GPGPU-Sim PTX: 17800000 instructions simulated : ctaid=(73,0,0) tid=(95,0,0)
GPGPU-Sim PTX: 17900000 instructions simulated : ctaid=(54,0,0) tid=(63,0,0)
GPGPU-Sim PTX: 18000000 instructions simulated : ctaid=(41,0,0) tid=(95,0,0)
GPGPU-Sim PTX: 18100000 instructions simulated : ctaid=(21,0,0) tid=(95,0,0)
GPGPU-Sim PTX: 18200000 instructions simulated : ctaid=(19,0,0) tid=(95,0,0)
GPGPU-Sim PTX: 18300000 instructions simulated : ctaid=(83,0,0) tid=(95,0,0)
GPGPU-Sim PTX: 18400000 instructions simulated : ctaid=(62,0,0) tid=(127,0,0)
GPGPU-Sim uArch: cycles simulated: 33500  inst.: 18409856 (ipc=549.5) sim_rate=575308 (inst/sec) elapsed = 0:0:00:32 / Sun Feb 28 21:43:37 2016
GPGPU-Sim PTX: 18500000 instructions simulated : ctaid=(97,0,0) tid=(31,0,0)
GPGPU-Sim PTX: 18600000 instructions simulated : ctaid=(41,0,0) tid=(63,0,0)
GPGPU-Sim PTX: 18700000 instructions simulated : ctaid=(3,0,0) tid=(95,0,0)
GPGPU-Sim PTX: 18800000 instructions simulated : ctaid=(53,0,0) tid=(127,0,0)
GPGPU-Sim PTX: 18900000 instructions simulated : ctaid=(55,0,0) tid=(95,0,0)
GPGPU-Sim PTX: 19000000 instructions simulated : ctaid=(58,0,0) tid=(63,0,0)
GPGPU-Sim uArch: cycles simulated: 34500  inst.: 18978208 (ipc=550.1) sim_rate=575097 (inst/sec) elapsed = 0:0:00:33 / Sun Feb 28 21:43:38 2016
GPGPU-Sim PTX: 19100000 instructions simulated : ctaid=(79,0,0) tid=(127,0,0)
GPGPU-Sim PTX: 19200000 instructions simulated : ctaid=(22,0,0) tid=(31,0,0)
GPGPU-Sim PTX: 19300000 instructions simulated : ctaid=(79,0,0) tid=(95,0,0)
GPGPU-Sim PTX: 19400000 instructions simulated : ctaid=(63,0,0) tid=(95,0,0)
GPGPU-Sim PTX: 19500000 instructions simulated : ctaid=(110,0,0) tid=(31,0,0)
GPGPU-Sim uArch: cycles simulated: 35500  inst.: 19552448 (ipc=550.8) sim_rate=575072 (inst/sec) elapsed = 0:0:00:34 / Sun Feb 28 21:43:39 2016
GPGPU-Sim PTX: 19600000 instructions simulated : ctaid=(51,0,0) tid=(95,0,0)
GPGPU-Sim PTX: 19700000 instructions simulated : ctaid=(12,0,0) tid=(95,0,0)
GPGPU-Sim PTX: 19800000 instructions simulated : ctaid=(43,0,0) tid=(95,0,0)
GPGPU-Sim PTX: 19900000 instructions simulated : ctaid=(89,0,0) tid=(63,0,0)
GPGPU-Sim PTX: 20000000 instructions simulated : ctaid=(37,0,0) tid=(63,0,0)
GPGPU-Sim PTX: 20100000 instructions simulated : ctaid=(75,0,0) tid=(127,0,0)
GPGPU-Sim uArch: cycles simulated: 36500  inst.: 20145952 (ipc=551.9) sim_rate=575598 (inst/sec) elapsed = 0:0:00:35 / Sun Feb 28 21:43:40 2016
GPGPU-Sim PTX: 20200000 instructions simulated : ctaid=(34,0,0) tid=(95,0,0)
GPGPU-Sim PTX: 20300000 instructions simulated : ctaid=(43,0,0) tid=(127,0,0)
GPGPU-Sim PTX: 20400000 instructions simulated : ctaid=(77,0,0) tid=(63,0,0)
GPGPU-Sim PTX: 20500000 instructions simulated : ctaid=(92,0,0) tid=(31,0,0)
GPGPU-Sim PTX: 20600000 instructions simulated : ctaid=(72,0,0) tid=(95,0,0)
GPGPU-Sim PTX: 20700000 instructions simulated : ctaid=(19,0,0) tid=(63,0,0)
GPGPU-Sim uArch: cycles simulated: 37500  inst.: 20699456 (ipc=552.0) sim_rate=574984 (inst/sec) elapsed = 0:0:00:36 / Sun Feb 28 21:43:41 2016
GPGPU-Sim PTX: 20800000 instructions simulated : ctaid=(65,0,0) tid=(31,0,0)
GPGPU-Sim PTX: 20900000 instructions simulated : ctaid=(20,0,0) tid=(127,0,0)
GPGPU-Sim PTX: 21000000 instructions simulated : ctaid=(2,0,0) tid=(31,0,0)
GPGPU-Sim PTX: 21100000 instructions simulated : ctaid=(26,0,0) tid=(95,0,0)
GPGPU-Sim PTX: 21200000 instructions simulated : ctaid=(47,0,0) tid=(31,0,0)
GPGPU-Sim PTX: 21300000 instructions simulated : ctaid=(32,0,0) tid=(31,0,0)
GPGPU-Sim PTX: 21400000 instructions simulated : ctaid=(59,0,0) tid=(31,0,0)
GPGPU-Sim PTX: 21500000 instructions simulated : ctaid=(83,0,0) tid=(95,0,0)
GPGPU-Sim uArch: cycles simulated: 39000  inst.: 21557152 (ipc=552.7) sim_rate=582625 (inst/sec) elapsed = 0:0:00:37 / Sun Feb 28 21:43:42 2016
GPGPU-Sim PTX: 21600000 instructions simulated : ctaid=(35,0,0) tid=(95,0,0)
GPGPU-Sim PTX: 21700000 instructions simulated : ctaid=(89,0,0) tid=(63,0,0)
GPGPU-Sim PTX: 21800000 instructions simulated : ctaid=(34,0,0) tid=(63,0,0)
GPGPU-Sim PTX: 21900000 instructions simulated : ctaid=(32,0,0) tid=(127,0,0)
GPGPU-Sim PTX: 22000000 instructions simulated : ctaid=(19,0,0) tid=(95,0,0)
GPGPU-Sim PTX: 22100000 instructions simulated : ctaid=(85,0,0) tid=(31,0,0)
GPGPU-Sim uArch: cycles simulated: 40000  inst.: 22130624 (ipc=553.3) sim_rate=582384 (inst/sec) elapsed = 0:0:00:38 / Sun Feb 28 21:43:43 2016
GPGPU-Sim PTX: 22200000 instructions simulated : ctaid=(74,0,0) tid=(95,0,0)
GPGPU-Sim PTX: 22300000 instructions simulated : ctaid=(80,0,0) tid=(31,0,0)
GPGPU-Sim PTX: 22400000 instructions simulated : ctaid=(59,0,0) tid=(63,0,0)
GPGPU-Sim PTX: 22500000 instructions simulated : ctaid=(39,0,0) tid=(63,0,0)
GPGPU-Sim PTX: 22600000 instructions simulated : ctaid=(49,0,0) tid=(31,0,0)
GPGPU-Sim PTX: 22700000 instructions simulated : ctaid=(7,0,0) tid=(63,0,0)
GPGPU-Sim uArch: cycles simulated: 41000  inst.: 22672928 (ipc=553.0) sim_rate=581357 (inst/sec) elapsed = 0:0:00:39 / Sun Feb 28 21:43:44 2016
GPGPU-Sim PTX: 22800000 instructions simulated : ctaid=(85,0,0) tid=(31,0,0)
GPGPU-Sim PTX: 22900000 instructions simulated : ctaid=(46,0,0) tid=(95,0,0)
GPGPU-Sim PTX: 23000000 instructions simulated : ctaid=(50,0,0) tid=(127,0,0)
GPGPU-Sim PTX: 23100000 instructions simulated : ctaid=(42,0,0) tid=(31,0,0)
GPGPU-Sim PTX: 23200000 instructions simulated : ctaid=(52,0,0) tid=(31,0,0)
GPGPU-Sim PTX: 23300000 instructions simulated : ctaid=(34,0,0) tid=(127,0,0)
GPGPU-Sim uArch: cycles simulated: 42000  inst.: 23282176 (ipc=554.3) sim_rate=582054 (inst/sec) elapsed = 0:0:00:40 / Sun Feb 28 21:43:45 2016
GPGPU-Sim PTX: 23400000 instructions simulated : ctaid=(69,0,0) tid=(95,0,0)
GPGPU-Sim PTX: 23500000 instructions simulated : ctaid=(104,0,0) tid=(63,0,0)
GPGPU-Sim PTX: 23600000 instructions simulated : ctaid=(69,0,0) tid=(127,0,0)
GPGPU-Sim PTX: 23700000 instructions simulated : ctaid=(23,0,0) tid=(63,0,0)
GPGPU-Sim PTX: 23800000 instructions simulated : ctaid=(3,0,0) tid=(127,0,0)
GPGPU-Sim PTX: 23900000 instructions simulated : ctaid=(85,0,0) tid=(31,0,0)
GPGPU-Sim uArch: cycles simulated: 43000  inst.: 23891712 (ipc=555.6) sim_rate=582724 (inst/sec) elapsed = 0:0:00:41 / Sun Feb 28 21:43:46 2016
GPGPU-Sim PTX: 24000000 instructions simulated : ctaid=(53,0,0) tid=(31,0,0)
GPGPU-Sim PTX: 24100000 instructions simulated : ctaid=(36,0,0) tid=(95,0,0)
GPGPU-Sim PTX: 24200000 instructions simulated : ctaid=(25,0,0) tid=(31,0,0)
GPGPU-Sim PTX: 24300000 instructions simulated : ctaid=(93,0,0) tid=(127,0,0)
GPGPU-Sim PTX: 24400000 instructions simulated : ctaid=(5,0,0) tid=(31,0,0)
GPGPU-Sim PTX: 24500000 instructions simulated : ctaid=(33,0,0) tid=(63,0,0)
GPGPU-Sim uArch: cycles simulated: 44000  inst.: 24488320 (ipc=556.6) sim_rate=583055 (inst/sec) elapsed = 0:0:00:42 / Sun Feb 28 21:43:47 2016
GPGPU-Sim PTX: 24600000 instructions simulated : ctaid=(74,0,0) tid=(95,0,0)
GPGPU-Sim PTX: 24700000 instructions simulated : ctaid=(28,0,0) tid=(63,0,0)
GPGPU-Sim PTX: 24800000 instructions simulated : ctaid=(9,0,0) tid=(95,0,0)
GPGPU-Sim PTX: 24900000 instructions simulated : ctaid=(30,0,0) tid=(31,0,0)
GPGPU-Sim PTX: 25000000 instructions simulated : ctaid=(77,0,0) tid=(63,0,0)
GPGPU-Sim PTX: 25100000 instructions simulated : ctaid=(13,0,0) tid=(63,0,0)
GPGPU-Sim PTX: 25200000 instructions simulated : ctaid=(12,0,0) tid=(63,0,0)
GPGPU-Sim PTX: 25300000 instructions simulated : ctaid=(59,0,0) tid=(63,0,0)
GPGPU-Sim uArch: cycles simulated: 45500  inst.: 25320256 (ipc=556.5) sim_rate=588843 (inst/sec) elapsed = 0:0:00:43 / Sun Feb 28 21:43:48 2016
GPGPU-Sim PTX: 25400000 instructions simulated : ctaid=(65,0,0) tid=(127,0,0)
GPGPU-Sim PTX: 25500000 instructions simulated : ctaid=(69,0,0) tid=(63,0,0)
GPGPU-Sim PTX: 25600000 instructions simulated : ctaid=(3,0,0) tid=(95,0,0)
GPGPU-Sim PTX: 25700000 instructions simulated : ctaid=(83,0,0) tid=(63,0,0)
GPGPU-Sim PTX: 25800000 instructions simulated : ctaid=(65,0,0) tid=(31,0,0)
GPGPU-Sim PTX: 25900000 instructions simulated : ctaid=(68,0,0) tid=(127,0,0)
GPGPU-Sim uArch: cycles simulated: 46500  inst.: 25864160 (ipc=556.2) sim_rate=587821 (inst/sec) elapsed = 0:0:00:44 / Sun Feb 28 21:43:49 2016
GPGPU-Sim PTX: 26000000 instructions simulated : ctaid=(14,0,0) tid=(127,0,0)
GPGPU-Sim PTX: 26100000 instructions simulated : ctaid=(65,0,0) tid=(95,0,0)
GPGPU-Sim PTX: 26200000 instructions simulated : ctaid=(56,0,0) tid=(95,0,0)
GPGPU-Sim PTX: 26300000 instructions simulated : ctaid=(72,0,0) tid=(63,0,0)
GPGPU-Sim PTX: 26400000 instructions simulated : ctaid=(27,0,0) tid=(95,0,0)
GPGPU-Sim uArch: cycles simulated: 47500  inst.: 26449856 (ipc=556.8) sim_rate=587774 (inst/sec) elapsed = 0:0:00:45 / Sun Feb 28 21:43:50 2016
GPGPU-Sim PTX: 26500000 instructions simulated : ctaid=(58,0,0) tid=(127,0,0)
GPGPU-Sim PTX: 26600000 instructions simulated : ctaid=(35,0,0) tid=(127,0,0)
GPGPU-Sim PTX: 26700000 instructions simulated : ctaid=(10,0,0) tid=(127,0,0)
GPGPU-Sim PTX: 26800000 instructions simulated : ctaid=(44,0,0) tid=(63,0,0)
GPGPU-Sim PTX: 26900000 instructions simulated : ctaid=(19,0,0) tid=(95,0,0)
GPGPU-Sim PTX: 27000000 instructions simulated : ctaid=(63,0,0) tid=(31,0,0)
GPGPU-Sim uArch: cycles simulated: 48500  inst.: 27004160 (ipc=556.8) sim_rate=587046 (inst/sec) elapsed = 0:0:00:46 / Sun Feb 28 21:43:51 2016
GPGPU-Sim PTX: 27100000 instructions simulated : ctaid=(1,0,0) tid=(31,0,0)
GPGPU-Sim PTX: 27200000 instructions simulated : ctaid=(116,0,0) tid=(63,0,0)
GPGPU-Sim PTX: 27300000 instructions simulated : ctaid=(15,0,0) tid=(95,0,0)
GPGPU-Sim PTX: 27400000 instructions simulated : ctaid=(6,0,0) tid=(31,0,0)
GPGPU-Sim PTX: 27500000 instructions simulated : ctaid=(2,0,0) tid=(31,0,0)
GPGPU-Sim PTX: 27600000 instructions simulated : ctaid=(15,0,0) tid=(95,0,0)
GPGPU-Sim uArch: cycles simulated: 49500  inst.: 27622240 (ipc=558.0) sim_rate=587707 (inst/sec) elapsed = 0:0:00:47 / Sun Feb 28 21:43:52 2016
GPGPU-Sim PTX: 27700000 instructions simulated : ctaid=(28,0,0) tid=(63,0,0)
GPGPU-Sim PTX: 27800000 instructions simulated : ctaid=(16,0,0) tid=(63,0,0)
GPGPU-Sim PTX: 27900000 instructions simulated : ctaid=(30,0,0) tid=(95,0,0)
GPGPU-Sim PTX: 28000000 instructions simulated : ctaid=(55,0,0) tid=(63,0,0)
GPGPU-Sim PTX: 28100000 instructions simulated : ctaid=(3,0,0) tid=(127,0,0)
GPGPU-Sim PTX: 28200000 instructions simulated : ctaid=(81,0,0) tid=(63,0,0)
GPGPU-Sim uArch: cycles simulated: 50500  inst.: 28205248 (ipc=558.5) sim_rate=587609 (inst/sec) elapsed = 0:0:00:48 / Sun Feb 28 21:43:53 2016
GPGPU-Sim PTX: 28300000 instructions simulated : ctaid=(72,0,0) tid=(63,0,0)
GPGPU-Sim PTX: 28400000 instructions simulated : ctaid=(1,0,0) tid=(31,0,0)
GPGPU-Sim PTX: 28500000 instructions simulated : ctaid=(67,0,0) tid=(31,0,0)
GPGPU-Sim PTX: 28600000 instructions simulated : ctaid=(79,0,0) tid=(95,0,0)
GPGPU-Sim PTX: 28700000 instructions simulated : ctaid=(71,0,0) tid=(95,0,0)
GPGPU-Sim PTX: 28800000 instructions simulated : ctaid=(15,0,0) tid=(63,0,0)
GPGPU-Sim PTX: 28900000 instructions simulated : ctaid=(71,0,0) tid=(127,0,0)
GPGPU-Sim PTX: 29000000 instructions simulated : ctaid=(6,0,0) tid=(95,0,0)
GPGPU-Sim PTX: 29100000 instructions simulated : ctaid=(102,0,0) tid=(127,0,0)
GPGPU-Sim uArch: cycles simulated: 52000  inst.: 29065824 (ipc=559.0) sim_rate=593180 (inst/sec) elapsed = 0:0:00:49 / Sun Feb 28 21:43:54 2016
GPGPU-Sim PTX: 29200000 instructions simulated : ctaid=(2,0,0) tid=(127,0,0)
GPGPU-Sim PTX: 29300000 instructions simulated : ctaid=(4,0,0) tid=(127,0,0)
GPGPU-Sim PTX: 29400000 instructions simulated : ctaid=(21,0,0) tid=(31,0,0)
GPGPU-Sim PTX: 29500000 instructions simulated : ctaid=(48,0,0) tid=(63,0,0)
GPGPU-Sim PTX: 29600000 instructions simulated : ctaid=(66,0,0) tid=(31,0,0)
GPGPU-Sim uArch: cycles simulated: 53000  inst.: 29636160 (ipc=559.2) sim_rate=592723 (inst/sec) elapsed = 0:0:00:50 / Sun Feb 28 21:43:55 2016
GPGPU-Sim PTX: 29700000 instructions simulated : ctaid=(61,0,0) tid=(31,0,0)
GPGPU-Sim PTX: 29800000 instructions simulated : ctaid=(91,0,0) tid=(63,0,0)
GPGPU-Sim PTX: 29900000 instructions simulated : ctaid=(85,0,0) tid=(95,0,0)
GPGPU-Sim PTX: 30000000 instructions simulated : ctaid=(75,0,0) tid=(95,0,0)
GPGPU-Sim PTX: 30100000 instructions simulated : ctaid=(21,0,0) tid=(63,0,0)
GPGPU-Sim PTX: 30200000 instructions simulated : ctaid=(22,0,0) tid=(63,0,0)
GPGPU-Sim uArch: cycles simulated: 54000  inst.: 30211936 (ipc=559.5) sim_rate=592390 (inst/sec) elapsed = 0:0:00:51 / Sun Feb 28 21:43:56 2016
GPGPU-Sim PTX: 30300000 instructions simulated : ctaid=(34,0,0) tid=(95,0,0)
GPGPU-Sim PTX: 30400000 instructions simulated : ctaid=(7,0,0) tid=(31,0,0)
GPGPU-Sim PTX: 30500000 instructions simulated : ctaid=(63,0,0) tid=(31,0,0)
GPGPU-Sim PTX: 30600000 instructions simulated : ctaid=(0,0,0) tid=(63,0,0)
GPGPU-Sim PTX: 30700000 instructions simulated : ctaid=(118,0,0) tid=(95,0,0)
GPGPU-Sim PTX: 30800000 instructions simulated : ctaid=(7,0,0) tid=(127,0,0)
GPGPU-Sim uArch: cycles simulated: 55000  inst.: 30807808 (ipc=560.1) sim_rate=592457 (inst/sec) elapsed = 0:0:00:52 / Sun Feb 28 21:43:57 2016
GPGPU-Sim PTX: 30900000 instructions simulated : ctaid=(88,0,0) tid=(31,0,0)
GPGPU-Sim PTX: 31000000 instructions simulated : ctaid=(46,0,0) tid=(95,0,0)
GPGPU-Sim PTX: 31100000 instructions simulated : ctaid=(22,0,0) tid=(127,0,0)
GPGPU-Sim PTX: 31200000 instructions simulated : ctaid=(82,0,0) tid=(127,0,0)
GPGPU-Sim PTX: 31300000 instructions simulated : ctaid=(8,0,0) tid=(95,0,0)
GPGPU-Sim PTX: 31400000 instructions simulated : ctaid=(24,0,0) tid=(63,0,0)
GPGPU-Sim uArch: cycles simulated: 56000  inst.: 31394208 (ipc=560.6) sim_rate=592343 (inst/sec) elapsed = 0:0:00:53 / Sun Feb 28 21:43:58 2016
GPGPU-Sim PTX: 31500000 instructions simulated : ctaid=(94,0,0) tid=(95,0,0)
GPGPU-Sim PTX: 31600000 instructions simulated : ctaid=(58,0,0) tid=(95,0,0)
GPGPU-Sim PTX: 31700000 instructions simulated : ctaid=(58,0,0) tid=(95,0,0)
GPGPU-Sim PTX: 31800000 instructions simulated : ctaid=(58,0,0) tid=(31,0,0)
GPGPU-Sim PTX: 31900000 instructions simulated : ctaid=(67,0,0) tid=(95,0,0)
GPGPU-Sim uArch: cycles simulated: 57000  inst.: 31943968 (ipc=560.4) sim_rate=591554 (inst/sec) elapsed = 0:0:00:54 / Sun Feb 28 21:43:59 2016
GPGPU-Sim PTX: 32000000 instructions simulated : ctaid=(97,0,0) tid=(31,0,0)
GPGPU-Sim PTX: 32100000 instructions simulated : ctaid=(61,0,0) tid=(95,0,0)
GPGPU-Sim PTX: 32200000 instructions simulated : ctaid=(36,0,0) tid=(127,0,0)
GPGPU-Sim PTX: 32300000 instructions simulated : ctaid=(43,0,0) tid=(127,0,0)
GPGPU-Sim PTX: 32400000 instructions simulated : ctaid=(53,0,0) tid=(31,0,0)
GPGPU-Sim PTX: 32500000 instructions simulated : ctaid=(0,0,0) tid=(31,0,0)
GPGPU-Sim PTX: 32600000 instructions simulated : ctaid=(45,0,0) tid=(127,0,0)
GPGPU-Sim PTX: 32700000 instructions simulated : ctaid=(42,0,0) tid=(127,0,0)
GPGPU-Sim PTX: 32800000 instructions simulated : ctaid=(9,0,0) tid=(63,0,0)
GPGPU-Sim uArch: cycles simulated: 58500  inst.: 32781280 (ipc=560.4) sim_rate=596023 (inst/sec) elapsed = 0:0:00:55 / Sun Feb 28 21:44:00 2016
GPGPU-Sim PTX: 32900000 instructions simulated : ctaid=(54,0,0) tid=(95,0,0)
GPGPU-Sim PTX: 33000000 instructions simulated : ctaid=(46,0,0) tid=(31,0,0)
GPGPU-Sim uArch: cycles simulated: 59000  inst.: 33061120 (ipc=560.4) sim_rate=590377 (inst/sec) elapsed = 0:0:00:56 / Sun Feb 28 21:44:01 2016
GPGPU-Sim PTX: 33100000 instructions simulated : ctaid=(83,0,0) tid=(63,0,0)
GPGPU-Sim PTX: 33200000 instructions simulated : ctaid=(46,0,0) tid=(31,0,0)
GPGPU-Sim PTX: 33300000 instructions simulated : ctaid=(53,0,0) tid=(127,0,0)
GPGPU-Sim PTX: 33400000 instructions simulated : ctaid=(69,0,0) tid=(31,0,0)
GPGPU-Sim PTX: 33500000 instructions simulated : ctaid=(47,0,0) tid=(31,0,0)
GPGPU-Sim PTX: 33600000 instructions simulated : ctaid=(76,0,0) tid=(31,0,0)
GPGPU-Sim uArch: cycles simulated: 60000  inst.: 33609152 (ipc=560.2) sim_rate=589634 (inst/sec) elapsed = 0:0:00:57 / Sun Feb 28 21:44:02 2016
GPGPU-Sim PTX: 33700000 instructions simulated : ctaid=(116,0,0) tid=(95,0,0)
GPGPU-Sim PTX: 33800000 instructions simulated : ctaid=(60,0,0) tid=(31,0,0)
GPGPU-Sim PTX: 33900000 instructions simulated : ctaid=(31,0,0) tid=(31,0,0)
GPGPU-Sim PTX: 34000000 instructions simulated : ctaid=(55,0,0) tid=(127,0,0)
GPGPU-Sim PTX: 34100000 instructions simulated : ctaid=(97,0,0) tid=(31,0,0)
GPGPU-Sim PTX: 34200000 instructions simulated : ctaid=(65,0,0) tid=(63,0,0)
GPGPU-Sim PTX: 34300000 instructions simulated : ctaid=(65,0,0) tid=(63,0,0)
GPGPU-Sim PTX: 34400000 instructions simulated : ctaid=(98,0,0) tid=(95,0,0)
GPGPU-Sim uArch: cycles simulated: 61500  inst.: 34364096 (ipc=558.8) sim_rate=592484 (inst/sec) elapsed = 0:0:00:58 / Sun Feb 28 21:44:03 2016
GPGPU-Sim PTX: 34500000 instructions simulated : ctaid=(48,0,0) tid=(127,0,0)
GPGPU-Sim PTX: 34600000 instructions simulated : ctaid=(57,0,0) tid=(127,0,0)
GPGPU-Sim PTX: 34700000 instructions simulated : ctaid=(38,0,0) tid=(31,0,0)
GPGPU-Sim PTX: 34800000 instructions simulated : ctaid=(20,0,0) tid=(63,0,0)
GPGPU-Sim uArch: cycles simulated: 62500  inst.: 34847776 (ipc=557.6) sim_rate=590640 (inst/sec) elapsed = 0:0:00:59 / Sun Feb 28 21:44:04 2016
GPGPU-Sim PTX: 34900000 instructions simulated : ctaid=(32,0,0) tid=(63,0,0)
GPGPU-Sim PTX: 35000000 instructions simulated : ctaid=(59,0,0) tid=(63,0,0)
GPGPU-Sim PTX: 35100000 instructions simulated : ctaid=(113,0,0) tid=(95,0,0)
GPGPU-Sim PTX: 35200000 instructions simulated : ctaid=(12,0,0) tid=(63,0,0)
GPGPU-Sim PTX: 35300000 instructions simulated : ctaid=(74,0,0) tid=(95,0,0)
GPGPU-Sim uArch: cycles simulated: 63500  inst.: 35338720 (ipc=556.5) sim_rate=588978 (inst/sec) elapsed = 0:0:01:00 / Sun Feb 28 21:44:05 2016
GPGPU-Sim PTX: 35400000 instructions simulated : ctaid=(65,0,0) tid=(95,0,0)
GPGPU-Sim PTX: 35500000 instructions simulated : ctaid=(95,0,0) tid=(63,0,0)
GPGPU-Sim PTX: 35600000 instructions simulated : ctaid=(39,0,0) tid=(63,0,0)
GPGPU-Sim PTX: 35700000 instructions simulated : ctaid=(87,0,0) tid=(31,0,0)
GPGPU-Sim PTX: 35800000 instructions simulated : ctaid=(16,0,0) tid=(127,0,0)
GPGPU-Sim uArch: cycles simulated: 64500  inst.: 35863264 (ipc=556.0) sim_rate=587922 (inst/sec) elapsed = 0:0:01:01 / Sun Feb 28 21:44:06 2016
GPGPU-Sim PTX: 35900000 instructions simulated : ctaid=(63,0,0) tid=(127,0,0)
GPGPU-Sim PTX: 36000000 instructions simulated : ctaid=(56,0,0) tid=(63,0,0)
GPGPU-Sim PTX: 36100000 instructions simulated : ctaid=(67,0,0) tid=(63,0,0)
GPGPU-Sim uArch: Shader 10 finished CTA #0 (64963,0), 7 CTAs running
GPGPU-Sim uArch: core: 10, cta: 0 initialized @(64964,0)
GPGPU-Sim uArch: Shader 3 finished CTA #0 (65031,0), 7 CTAs running
GPGPU-Sim uArch: core:  3, cta: 0 initialized @(65032,0)
GPGPU-Sim PTX: 36200000 instructions simulated : ctaid=(91,0,0) tid=(95,0,0)
GPGPU-Sim uArch: Shader 7 finished CTA #0 (65289,0), 7 CTAs running
GPGPU-Sim uArch: core:  7, cta: 0 initialized @(65290,0)
GPGPU-Sim PTX: 36300000 instructions simulated : ctaid=(54,0,0) tid=(127,0,0)
GPGPU-Sim uArch: Shader 5 finished CTA #0 (65493,0), 7 CTAs running
GPGPU-Sim uArch: core:  5, cta: 0 initialized @(65494,0)
GPGPU-Sim uArch: cycles simulated: 65500  inst.: 36312128 (ipc=554.4) sim_rate=585679 (inst/sec) elapsed = 0:0:01:02 / Sun Feb 28 21:44:07 2016
GPGPU-Sim PTX: 36400000 instructions simulated : ctaid=(84,0,0) tid=(127,0,0)
GPGPU-Sim uArch: Shader 1 finished CTA #0 (65615,0), 7 CTAs running
GPGPU-Sim uArch: core:  1, cta: 0 initialized @(65616,0)
GPGPU-Sim uArch: Shader 9 finished CTA #0 (65709,0), 7 CTAs running
GPGPU-Sim uArch: core:  9, cta: 0 initialized @(65710,0)
GPGPU-Sim PTX: 36500000 instructions simulated : ctaid=(63,0,0) tid=(95,0,0)
GPGPU-Sim PTX: 36600000 instructions simulated : ctaid=(31,0,0) tid=(63,0,0)
GPGPU-Sim uArch: Shader 6 finished CTA #1 (66004,0), 7 CTAs running
GPGPU-Sim uArch: core:  6, cta: 1 initialized @(66005,0)
GPGPU-Sim uArch: Shader 0 finished CTA #0 (66121,0), 7 CTAs running
GPGPU-Sim uArch: core:  0, cta: 0 initialized @(66122,0)
GPGPU-Sim PTX: 36700000 instructions simulated : ctaid=(74,0,0) tid=(31,0,0)
GPGPU-Sim PTX: 36800000 instructions simulated : ctaid=(64,0,0) tid=(63,0,0)
GPGPU-Sim PTX: 36900000 instructions simulated : ctaid=(104,0,0) tid=(127,0,0)
GPGPU-Sim PTX: 37000000 instructions simulated : ctaid=(110,0,0) tid=(95,0,0)
GPGPU-Sim uArch: Shader 12 finished CTA #0 (66725,0), 7 CTAs running
GPGPU-Sim uArch: core: 12, cta: 0 initialized @(66726,0)
GPGPU-Sim uArch: Shader 11 finished CTA #0 (66731,0), 7 CTAs running
GPGPU-Sim uArch: core: 11, cta: 0 initialized @(66732,0)
GPGPU-Sim uArch: Shader 8 finished CTA #0 (66867,0), 7 CTAs running
GPGPU-Sim uArch: core:  8, cta: 0 initialized @(66868,0)
GPGPU-Sim PTX: 37100000 instructions simulated : ctaid=(130,0,0) tid=(63,0,0)
GPGPU-Sim uArch: Shader 3 finished CTA #2 (66880,0), 7 CTAs running
GPGPU-Sim uArch: core:  3, cta: 2 initialized @(66881,0)
GPGPU-Sim uArch: Shader 5 finished CTA #1 (66948,0), 7 CTAs running
GPGPU-Sim uArch: core:  5, cta: 1 initialized @(66949,0)
GPGPU-Sim uArch: cycles simulated: 67000  inst.: 37130976 (ipc=554.2) sim_rate=589380 (inst/sec) elapsed = 0:0:01:03 / Sun Feb 28 21:44:08 2016
GPGPU-Sim PTX: 37200000 instructions simulated : ctaid=(71,0,0) tid=(63,0,0)
GPGPU-Sim uArch: Shader 7 finished CTA #1 (67149,0), 7 CTAs running
GPGPU-Sim uArch: core:  7, cta: 1 initialized @(67150,0)
GPGPU-Sim uArch: Shader 12 finished CTA #1 (67203,0), 7 CTAs running
GPGPU-Sim uArch: core: 12, cta: 1 initialized @(67204,0)
GPGPU-Sim PTX: 37300000 instructions simulated : ctaid=(77,0,0) tid=(63,0,0)
GPGPU-Sim PTX: 37400000 instructions simulated : ctaid=(122,0,0) tid=(127,0,0)
GPGPU-Sim PTX: 37500000 instructions simulated : ctaid=(63,0,0) tid=(63,0,0)
GPGPU-Sim uArch: Shader 9 finished CTA #2 (67728,0), 7 CTAs running
GPGPU-Sim uArch: core:  9, cta: 2 initialized @(67729,0)
GPGPU-Sim PTX: 37600000 instructions simulated : ctaid=(98,0,0) tid=(127,0,0)
GPGPU-Sim uArch: Shader 4 finished CTA #0 (67890,0), 7 CTAs running
GPGPU-Sim uArch: core:  4, cta: 0 initialized @(67891,0)
GPGPU-Sim uArch: Shader 9 finished CTA #1 (67894,0), 7 CTAs running
GPGPU-Sim uArch: core:  9, cta: 1 initialized @(67895,0)
GPGPU-Sim uArch: Shader 2 finished CTA #0 (67905,0), 7 CTAs running
GPGPU-Sim uArch: core:  2, cta: 0 initialized @(67906,0)
GPGPU-Sim PTX: 37700000 instructions simulated : ctaid=(53,0,0) tid=(127,0,0)
GPGPU-Sim uArch: Shader 8 finished CTA #1 (67970,0), 7 CTAs running
GPGPU-Sim uArch: core:  8, cta: 1 initialized @(67971,0)
GPGPU-Sim uArch: Shader 3 finished CTA #1 (67995,0), 7 CTAs running
GPGPU-Sim uArch: core:  3, cta: 1 initialized @(67996,0)
GPGPU-Sim uArch: cycles simulated: 68000  inst.: 37693568 (ipc=554.3) sim_rate=588962 (inst/sec) elapsed = 0:0:01:04 / Sun Feb 28 21:44:09 2016
GPGPU-Sim PTX: 37800000 instructions simulated : ctaid=(100,0,0) tid=(31,0,0)
GPGPU-Sim uArch: Shader 6 finished CTA #0 (68119,0), 7 CTAs running
GPGPU-Sim uArch: core:  6, cta: 0 initialized @(68120,0)
GPGPU-Sim PTX: 37900000 instructions simulated : ctaid=(54,0,0) tid=(63,0,0)
GPGPU-Sim uArch: Shader 14 finished CTA #0 (68260,0), 7 CTAs running
GPGPU-Sim uArch: core: 14, cta: 0 initialized @(68261,0)
GPGPU-Sim uArch: Shader 0 finished CTA #1 (68352,0), 7 CTAs running
GPGPU-Sim uArch: core:  0, cta: 1 initialized @(68353,0)
GPGPU-Sim uArch: Shader 13 finished CTA #0 (68362,0), 7 CTAs running
GPGPU-Sim uArch: core: 13, cta: 0 initialized @(68363,0)
GPGPU-Sim PTX: 38000000 instructions simulated : ctaid=(119,0,0) tid=(31,0,0)
GPGPU-Sim uArch: Shader 14 finished CTA #1 (68487,0), 7 CTAs running
GPGPU-Sim uArch: core: 14, cta: 1 initialized @(68488,0)
GPGPU-Sim uArch: cycles simulated: 68500  inst.: 38005696 (ipc=554.8) sim_rate=584703 (inst/sec) elapsed = 0:0:01:05 / Sun Feb 28 21:44:10 2016
GPGPU-Sim PTX: 38100000 instructions simulated : ctaid=(48,0,0) tid=(63,0,0)
GPGPU-Sim PTX: 38200000 instructions simulated : ctaid=(125,0,0) tid=(127,0,0)
GPGPU-Sim PTX: 38300000 instructions simulated : ctaid=(61,0,0) tid=(127,0,0)
GPGPU-Sim uArch: Shader 12 finished CTA #2 (69015,0), 7 CTAs running
GPGPU-Sim uArch: core: 12, cta: 2 initialized @(69016,0)
GPGPU-Sim uArch: Shader 4 finished CTA #1 (69016,0), 7 CTAs running
GPGPU-Sim uArch: core:  4, cta: 1 initialized @(69017,0)
GPGPU-Sim PTX: 38400000 instructions simulated : ctaid=(66,0,0) tid=(63,0,0)
GPGPU-Sim uArch: Shader 10 finished CTA #1 (69096,0), 7 CTAs running
GPGPU-Sim uArch: core: 10, cta: 1 initialized @(69097,0)
GPGPU-Sim uArch: Shader 0 finished CTA #2 (69154,0), 7 CTAs running
GPGPU-Sim uArch: core:  0, cta: 2 initialized @(69155,0)
GPGPU-Sim PTX: 38500000 instructions simulated : ctaid=(86,0,0) tid=(127,0,0)
GPGPU-Sim PTX: 38600000 instructions simulated : ctaid=(77,0,0) tid=(127,0,0)
GPGPU-Sim uArch: Shader 8 finished CTA #2 (69493,0), 7 CTAs running
GPGPU-Sim uArch: core:  8, cta: 2 initialized @(69494,0)
GPGPU-Sim uArch: cycles simulated: 69500  inst.: 38592832 (ipc=555.3) sim_rate=584739 (inst/sec) elapsed = 0:0:01:06 / Sun Feb 28 21:44:11 2016
GPGPU-Sim PTX: 38700000 instructions simulated : ctaid=(123,0,0) tid=(31,0,0)
GPGPU-Sim uArch: Shader 2 finished CTA #1 (69594,0), 7 CTAs running
GPGPU-Sim uArch: core:  2, cta: 1 initialized @(69595,0)
GPGPU-Sim uArch: Shader 1 finished CTA #1 (69629,0), 7 CTAs running
GPGPU-Sim uArch: core:  1, cta: 1 initialized @(69630,0)
GPGPU-Sim uArch: Shader 6 finished CTA #2 (69722,0), 7 CTAs running
GPGPU-Sim uArch: core:  6, cta: 2 initialized @(69723,0)
GPGPU-Sim PTX: 38800000 instructions simulated : ctaid=(128,0,0) tid=(127,0,0)
GPGPU-Sim uArch: Shader 11 finished CTA #1 (69897,0), 7 CTAs running
GPGPU-Sim uArch: core: 11, cta: 1 initialized @(69898,0)
GPGPU-Sim PTX: 38900000 instructions simulated : ctaid=(84,0,0) tid=(31,0,0)
GPGPU-Sim PTX: 39000000 instructions simulated : ctaid=(30,0,0) tid=(63,0,0)
GPGPU-Sim PTX: 39100000 instructions simulated : ctaid=(115,0,0) tid=(31,0,0)
GPGPU-Sim PTX: 39200000 instructions simulated : ctaid=(120,0,0) tid=(31,0,0)
GPGPU-Sim uArch: cycles simulated: 70500  inst.: 39214976 (ipc=556.2) sim_rate=585298 (inst/sec) elapsed = 0:0:01:07 / Sun Feb 28 21:44:12 2016
GPGPU-Sim PTX: 39300000 instructions simulated : ctaid=(88,0,0) tid=(127,0,0)
GPGPU-Sim uArch: Shader 5 finished CTA #2 (70636,0), 7 CTAs running
GPGPU-Sim uArch: core:  5, cta: 2 initialized @(70637,0)
GPGPU-Sim PTX: 39400000 instructions simulated : ctaid=(119,0,0) tid=(31,0,0)
GPGPU-Sim PTX: 39500000 instructions simulated : ctaid=(133,0,0) tid=(31,0,0)
GPGPU-Sim PTX: 39600000 instructions simulated : ctaid=(102,0,0) tid=(95,0,0)
GPGPU-Sim uArch: Shader 13 finished CTA #2 (71083,0), 7 CTAs running
GPGPU-Sim uArch: core: 13, cta: 2 initialized @(71084,0)
GPGPU-Sim PTX: 39700000 instructions simulated : ctaid=(139,0,0) tid=(95,0,0)
GPGPU-Sim uArch: Shader 2 finished CTA #2 (71285,0), 7 CTAs running
GPGPU-Sim uArch: core:  2, cta: 2 initialized @(71286,0)
GPGPU-Sim uArch: Shader 13 finished CTA #1 (71291,0), 7 CTAs running
GPGPU-Sim uArch: core: 13, cta: 1 initialized @(71292,0)
GPGPU-Sim uArch: Shader 14 finished CTA #2 (71369,0), 7 CTAs running
GPGPU-Sim uArch: core: 14, cta: 2 initialized @(71370,0)
GPGPU-Sim PTX: 39800000 instructions simulated : ctaid=(124,0,0) tid=(31,0,0)
GPGPU-Sim uArch: cycles simulated: 71500  inst.: 39811808 (ipc=556.8) sim_rate=585467 (inst/sec) elapsed = 0:0:01:08 / Sun Feb 28 21:44:13 2016
GPGPU-Sim PTX: 39900000 instructions simulated : ctaid=(87,0,0) tid=(95,0,0)
GPGPU-Sim PTX: 40000000 instructions simulated : ctaid=(97,0,0) tid=(127,0,0)
GPGPU-Sim uArch: Shader 1 finished CTA #2 (71839,0), 7 CTAs running
GPGPU-Sim uArch: core:  1, cta: 2 initialized @(71840,0)
GPGPU-Sim PTX: 40100000 instructions simulated : ctaid=(153,0,0) tid=(95,0,0)
GPGPU-Sim uArch: Shader 12 finished CTA #3 (72029,0), 7 CTAs running
GPGPU-Sim uArch: core: 12, cta: 3 initialized @(72030,0)
GPGPU-Sim PTX: 40200000 instructions simulated : ctaid=(88,0,0) tid=(63,0,0)
GPGPU-Sim uArch: Shader 11 finished CTA #2 (72157,0), 7 CTAs running
GPGPU-Sim uArch: core: 11, cta: 2 initialized @(72158,0)
GPGPU-Sim PTX: 40300000 instructions simulated : ctaid=(86,0,0) tid=(127,0,0)
GPGPU-Sim uArch: Shader 9 finished CTA #3 (72346,0), 7 CTAs running
GPGPU-Sim uArch: core:  9, cta: 3 initialized @(72347,0)
GPGPU-Sim PTX: 40400000 instructions simulated : ctaid=(135,0,0) tid=(127,0,0)
GPGPU-Sim uArch: cycles simulated: 72500  inst.: 40389120 (ipc=557.1) sim_rate=585349 (inst/sec) elapsed = 0:0:01:09 / Sun Feb 28 21:44:14 2016
GPGPU-Sim uArch: Shader 7 finished CTA #2 (72509,0), 7 CTAs running
GPGPU-Sim uArch: core:  7, cta: 2 initialized @(72510,0)
GPGPU-Sim PTX: 40500000 instructions simulated : ctaid=(110,0,0) tid=(31,0,0)
GPGPU-Sim uArch: Shader 10 finished CTA #2 (72641,0), 7 CTAs running
GPGPU-Sim uArch: core: 10, cta: 2 initialized @(72642,0)
GPGPU-Sim uArch: Shader 3 finished CTA #3 (72763,0), 7 CTAs running
GPGPU-Sim uArch: core:  3, cta: 3 initialized @(72764,0)
GPGPU-Sim PTX: 40600000 instructions simulated : ctaid=(82,0,0) tid=(95,0,0)
GPGPU-Sim PTX: 40700000 instructions simulated : ctaid=(94,0,0) tid=(127,0,0)
GPGPU-Sim PTX: 40800000 instructions simulated : ctaid=(112,0,0) tid=(95,0,0)
GPGPU-Sim PTX: 40900000 instructions simulated : ctaid=(143,0,0) tid=(63,0,0)
GPGPU-Sim PTX: 41000000 instructions simulated : ctaid=(65,0,0) tid=(127,0,0)
GPGPU-Sim uArch: cycles simulated: 73500  inst.: 40967584 (ipc=557.4) sim_rate=585251 (inst/sec) elapsed = 0:0:01:10 / Sun Feb 28 21:44:15 2016
GPGPU-Sim uArch: Shader 4 finished CTA #2 (73615,0), 7 CTAs running
GPGPU-Sim uArch: core:  4, cta: 2 initialized @(73616,0)
GPGPU-Sim PTX: 41100000 instructions simulated : ctaid=(102,0,0) tid=(31,0,0)
GPGPU-Sim PTX: 41200000 instructions simulated : ctaid=(99,0,0) tid=(95,0,0)
GPGPU-Sim PTX: 41300000 instructions simulated : ctaid=(136,0,0) tid=(95,0,0)
GPGPU-Sim PTX: 41400000 instructions simulated : ctaid=(82,0,0) tid=(63,0,0)
GPGPU-Sim PTX: 41500000 instructions simulated : ctaid=(117,0,0) tid=(63,0,0)
GPGPU-Sim PTX: 41600000 instructions simulated : ctaid=(52,0,0) tid=(63,0,0)
GPGPU-Sim uArch: cycles simulated: 74500  inst.: 41568672 (ipc=558.0) sim_rate=585474 (inst/sec) elapsed = 0:0:01:11 / Sun Feb 28 21:44:16 2016
GPGPU-Sim uArch: Shader 6 finished CTA #3 (74549,0), 7 CTAs running
GPGPU-Sim uArch: core:  6, cta: 3 initialized @(74550,0)
GPGPU-Sim uArch: Shader 0 finished CTA #3 (74576,0), 7 CTAs running
GPGPU-Sim uArch: core:  0, cta: 3 initialized @(74577,0)
GPGPU-Sim PTX: 41700000 instructions simulated : ctaid=(83,0,0) tid=(127,0,0)
GPGPU-Sim PTX: 41800000 instructions simulated : ctaid=(88,0,0) tid=(31,0,0)
GPGPU-Sim PTX: 41900000 instructions simulated : ctaid=(112,0,0) tid=(127,0,0)
GPGPU-Sim uArch: cycles simulated: 75000  inst.: 41871424 (ipc=558.3) sim_rate=581547 (inst/sec) elapsed = 0:0:01:12 / Sun Feb 28 21:44:17 2016
GPGPU-Sim PTX: 42000000 instructions simulated : ctaid=(147,0,0) tid=(127,0,0)
GPGPU-Sim PTX: 42100000 instructions simulated : ctaid=(89,0,0) tid=(63,0,0)
GPGPU-Sim PTX: 42200000 instructions simulated : ctaid=(86,0,0) tid=(127,0,0)
GPGPU-Sim PTX: 42300000 instructions simulated : ctaid=(160,0,0) tid=(95,0,0)
GPGPU-Sim PTX: 42400000 instructions simulated : ctaid=(119,0,0) tid=(95,0,0)
GPGPU-Sim PTX: 42500000 instructions simulated : ctaid=(141,0,0) tid=(63,0,0)
GPGPU-Sim uArch: cycles simulated: 76000  inst.: 42483008 (ipc=559.0) sim_rate=581959 (inst/sec) elapsed = 0:0:01:13 / Sun Feb 28 21:44:18 2016
GPGPU-Sim PTX: 42600000 instructions simulated : ctaid=(102,0,0) tid=(95,0,0)
GPGPU-Sim PTX: 42700000 instructions simulated : ctaid=(128,0,0) tid=(127,0,0)
GPGPU-Sim PTX: 42800000 instructions simulated : ctaid=(106,0,0) tid=(63,0,0)
GPGPU-Sim PTX: 42900000 instructions simulated : ctaid=(91,0,0) tid=(31,0,0)
GPGPU-Sim PTX: 43000000 instructions simulated : ctaid=(104,0,0) tid=(31,0,0)
GPGPU-Sim PTX: 43100000 instructions simulated : ctaid=(107,0,0) tid=(63,0,0)
GPGPU-Sim uArch: cycles simulated: 77000  inst.: 43061024 (ipc=559.2) sim_rate=581905 (inst/sec) elapsed = 0:0:01:14 / Sun Feb 28 21:44:19 2016
GPGPU-Sim PTX: 43200000 instructions simulated : ctaid=(93,0,0) tid=(63,0,0)
GPGPU-Sim uArch: Shader 8 finished CTA #3 (77178,0), 7 CTAs running
GPGPU-Sim uArch: core:  8, cta: 3 initialized @(77179,0)
GPGPU-Sim PTX: 43300000 instructions simulated : ctaid=(55,0,0) tid=(63,0,0)
GPGPU-Sim PTX: 43400000 instructions simulated : ctaid=(90,0,0) tid=(63,0,0)
GPGPU-Sim PTX: 43500000 instructions simulated : ctaid=(161,0,0) tid=(95,0,0)
GPGPU-Sim PTX: 43600000 instructions simulated : ctaid=(108,0,0) tid=(31,0,0)
GPGPU-Sim uArch: cycles simulated: 78000  inst.: 43641984 (ipc=559.5) sim_rate=581893 (inst/sec) elapsed = 0:0:01:15 / Sun Feb 28 21:44:20 2016
GPGPU-Sim PTX: 43700000 instructions simulated : ctaid=(139,0,0) tid=(31,0,0)
GPGPU-Sim PTX: 43800000 instructions simulated : ctaid=(147,0,0) tid=(95,0,0)
GPGPU-Sim uArch: Shader 10 finished CTA #3 (78269,0), 7 CTAs running
GPGPU-Sim uArch: core: 10, cta: 3 initialized @(78270,0)
GPGPU-Sim PTX: 43900000 instructions simulated : ctaid=(136,0,0) tid=(63,0,0)
GPGPU-Sim PTX: 44000000 instructions simulated : ctaid=(95,0,0) tid=(127,0,0)
GPGPU-Sim PTX: 44100000 instructions simulated : ctaid=(109,0,0) tid=(31,0,0)
GPGPU-Sim PTX: 44200000 instructions simulated : ctaid=(103,0,0) tid=(63,0,0)
GPGPU-Sim PTX: 44300000 instructions simulated : ctaid=(112,0,0) tid=(63,0,0)
GPGPU-Sim uArch: cycles simulated: 79000  inst.: 44255456 (ipc=560.2) sim_rate=582308 (inst/sec) elapsed = 0:0:01:16 / Sun Feb 28 21:44:21 2016
GPGPU-Sim uArch: Shader 1 finished CTA #3 (79024,0), 7 CTAs running
GPGPU-Sim uArch: core:  1, cta: 3 initialized @(79025,0)
GPGPU-Sim PTX: 44400000 instructions simulated : ctaid=(62,0,0) tid=(127,0,0)
GPGPU-Sim uArch: Shader 2 finished CTA #3 (79171,0), 7 CTAs running
GPGPU-Sim uArch: core:  2, cta: 3 initialized @(79172,0)
GPGPU-Sim PTX: 44500000 instructions simulated : ctaid=(91,0,0) tid=(95,0,0)
GPGPU-Sim PTX: 44600000 instructions simulated : ctaid=(98,0,0) tid=(31,0,0)
GPGPU-Sim PTX: 44700000 instructions simulated : ctaid=(122,0,0) tid=(31,0,0)
GPGPU-Sim uArch: Shader 7 finished CTA #3 (79748,0), 7 CTAs running
GPGPU-Sim uArch: core:  7, cta: 3 initialized @(79749,0)
GPGPU-Sim PTX: 44800000 instructions simulated : ctaid=(119,0,0) tid=(31,0,0)
GPGPU-Sim PTX: 44900000 instructions simulated : ctaid=(102,0,0) tid=(63,0,0)
GPGPU-Sim uArch: cycles simulated: 80000  inst.: 44863104 (ipc=560.8) sim_rate=582637 (inst/sec) elapsed = 0:0:01:17 / Sun Feb 28 21:44:22 2016
GPGPU-Sim PTX: 45000000 instructions simulated : ctaid=(158,0,0) tid=(95,0,0)
GPGPU-Sim PTX: 45100000 instructions simulated : ctaid=(134,0,0) tid=(63,0,0)
GPGPU-Sim PTX: 45200000 instructions simulated : ctaid=(102,0,0) tid=(63,0,0)
[...]
maxmflatency = 2170 
averagemflatency = 701 
max_icnt2mem_latency = 1092 
max_icnt2sh_latency = 347746 
mrq_lat_table:122257 	3828 	5940 	13988 	43653 	70695 	94041 	66358 	15988 	751 	10 	0 	0 	0 	0 	0 	0 	0 	0 	0 	0 	0 	0 	0 	0 	0 	0 	0 	0 	0 	0 	0 	
dq_lat_table:0 	0 	0 	0 	0 	0 	0 	0 	0 	0 	0 	0 	0 	0 	0 	0 	0 	0 	0 	0 	0 	0 	0 	0 	0 	0 	0 	0 	0 	0 	0 	0 	
mf_lat_table:0 	0 	0 	0 	0 	0 	0 	82 	47563 	248984 	15884 	2 	0 	0 	0 	0 	0 	0 	0 	0 	0 	0 	0 	0 	0 	0 	0 	0 	0 	0 	0 	0 	
icnt2mem_lat_table:0 	0 	0 	23496 	11764 	23524 	77397 	80644 	91803 	4006 	1 	0 	0 	0 	0 	0 	0 	0 	0 	0 	0 	0 	0 	0 	
icnt2sh_lat_table:0 	0 	0 	130665 	54628 	2214 	8 	0 	0 	0 	0 	101 	1464 	3151 	6078 	11931 	24461 	49246 	28568 	0 	0 	0 	0 	0 	
mf_lat_pw_table:0 	0 	0 	0 	0 	0 	0 	0 	52 	641 	0 	0 	0 	0 	0 	0 	0 	0 	0 	0 	0 	0 	0 	0 	0 	0 	0 	0 	0 	0 	0 	0 	
maximum concurrent accesses to same row:
dram[0]:        31        31        22        20        24        20        36        36        20        20        30        32        32        30        22        22 
dram[1]:        31        31        14        14        22        20        32        34        18        16        28        32        32        30        14        16 
dram[2]:        30        31        20        22        26        24        38        32        28        12        34        30        32        30        28        20 
dram[3]:        29        30        14        20        20        24        32        32        20        20        34        30        32        30        28        16 
dram[4]:        30        30        24        28        20        24        34        32        26        28        30        26        30        30        24        20 
dram[5]:        31        29        14        20        28        24        32        32        16        22        30        26        30        30        28        16 
maximum service time to same row:
dram[0]:      3224      3202      4729      3786      3835      3197      2453      2496      6566      5087      2566      2568      3037      3267      6425      4552 
dram[1]:      2271      3241      4238      3993      3841      3219      2456      2502      5918      4815      2423      2581      2994      3160      6370      4574 
dram[2]:      2204      3373      4294      3946      2740      2476      2504      2548      4773      5025      2562      2559      3076      2966      4818      4731 
dram[3]:      2014      3392      3888      4691      2553      2628      2612      2669      4505      5080      2573      2676      3244      2978      4857      4761 
dram[4]:      3284      3202      4394      4250      2444      2447      2687      2490      5242      4398      2509      2576      2965      2816      4532      4918 
dram[5]:      3338      3175      3896      3606      2461      2451      2480      2459      5149      4456      2590      2510      3098      3077      4835      4842 
average row accesses per activate:
dram[0]:  1.567726  1.578544  1.551049  1.565036  1.571974  1.582955  1.598323  1.610134  1.560709  1.560709  1.591652  1.576844  1.585036  1.588889  1.571968  1.577931 
dram[1]:  1.558763  1.550992  1.546265  1.538881  1.558995  1.564377  1.576300  1.575758  1.535571  1.530435  1.550661  1.561242  1.556463  1.573049  1.560177  1.554876 
dram[2]:  1.589905  1.567624  1.558549  1.564494  1.580195  1.563060  1.606178  1.616961  1.566051  1.555933  1.592760  1.586135  1.594425  1.573590  1.581203  1.578475 
dram[3]:  1.552893  1.554717  1.534172  1.539406  1.551523  1.562522  1.574131  1.585586  1.549611  1.550135  1.554876  1.566051  1.551712  1.564979  1.550661  1.561775 
dram[4]:  1.566149  1.565458  1.558549  1.554254  1.567624  1.578288  1.605614  1.614679  1.552239  1.548038  1.580656  1.573590  1.575215  1.580656  1.573049  1.590546 
dram[5]:  1.553272  1.548343  1.540457  1.537308  1.553119  1.552893  1.600560  1.576300  1.535055  1.548038  1.560709  1.555405  1.560709  1.572509  1.545424  1.562842 
average row locality = 437509/279293 = 1.566488
number of total memory accesses made:
dram[0]:         0         0         0         0         0         0         0         0         0         0         0         0         0         0         0         0 
dram[1]:         0         0         0         0         0         0         0         0         0         0         0         0         0         0         0         0 
dram[2]:         0         0         0         0         0         0         0         0         0         0         0         0         0         0         0         0 
dram[3]:         0         0         0         0         0         0         0         0         0         0         0         0         0         0         0         0 
dram[4]:         0         0         0         0         0         0         0         0         0         0         0         0         0         0         0         0 
dram[5]:         0         0         0         0         0         0         0         0         0         0         0         0         0         0         0         0 
total accesses: 0
min_bank_accesses = 0!
min_chip_accesses = 0!
number of total read accesses:
dram[0]:      3251      3246      3232      3232      3242      3242      3264      3264      3264      3264      3264      3264      3264      3264      3264      3264 
dram[1]:      3250      3246      3232      3232      3242      3242      3264      3264      3264      3264      3264      3264      3264      3264      3264      3264 
dram[2]:      3250      3246      3232      3232      3242      3244      3264      3264      3264      3264      3264      3264      3264      3264      3264      3264 
dram[3]:      3250      3246      3232      3232      3242      3244      3264      3264      3264      3264      3264      3264      3264      3264      3264      3264 
dram[4]:      3248      3246      3232      3232      3242      3244      3264      3264      3264      3264      3264      3264      3264      3264      3264      3264 
dram[5]:      3248      3246      3232      3232      3242      3244      3264      3264      3264      3264      3264      3264      3264      3264      3264      3264 
total reads: 312509
bank skew: 3264/3232 = 1.01
chip skew: 52086/52084 = 1.00
number of total write accesses:
dram[0]:      1286      1286      1280      1280      1290      1290      1312      1312      1312      1312      1312      1312      1312      1312      1312      1312 
dram[1]:      1286      1286      1280      1280      1290      1290      1312      1312      1312      1312      1312      1312      1312      1312      1312      1312 
dram[2]:      1286      1286      1280      1280      1290      1292      1312      1312      1312      1312      1312      1312      1312      1312      1312      1312 
dram[3]:      1286      1286      1280      1280      1290      1292      1312      1312      1312      1312      1312      1312      1312      1312      1312      1312 
dram[4]:      1286      1286      1280      1280      1290      1292      1312      1312      1312      1312      1312      1312      1312      1312      1312      1312 
dram[5]:      1286      1286      1280      1280      1290      1292      1312      1312      1312      1312      1312      1312      1312      1312      1312      1312 
total reads: 125000
bank skew: 1312/1280 = 1.02
chip skew: 20834/20832 = 1.00
average mf latency per bank:
dram[0]:        487       492       492       496       506       502       503       498       490       490       496       497       499       497       517       521
dram[1]:        453       462       465       470       463       472       467       480       458       467       459       468       465       474       481       492
dram[2]:        485       467       484       476       490       485       494       489       485       469       490       477       487       480       501       493
dram[3]:        475       477       482       483       480       490       494       498       479       480       482       476       489       485       494       503
dram[4]:        542       581       551       591       549       587       556       604       543       589       542       576       555       599       563       607
dram[5]:        476       488       482       503       486       507       491       506       481       499       480       496       487       502       499       522
maximum mf latency per bank:
dram[0]:       1551      1590      1571      1435      1527      1422      1850      1647      1461      1449      1664      1415      1519      1715      1762      1910
dram[1]:       1488      1410      1498      1395      1521      1363      1317      1541      1414      1323      1322      1291      1472      1412      1684      1396
dram[2]:       1623      1525      1743      1377      1601      1445      2021      1417      2117      1555      1687      1392      1581      1563      2170      1813
dram[3]:       1570      1393      1269      1520      1297      1367      1433      1357      1421      1434      1522      1400      1533      1325      1436      1556
dram[4]:       1414      1859      1373      1871      1499      1818      1466      1739      1562      1726      1633      1629      1536      1603      1571      1832
dram[5]:       1413      1473      1392      1507      1501      1482      1733      1403      1315      1602      1493      1428      1372      1389      1500      1463

Number of Memory Banks Accessed per Memory Operation per Warp (from 0):
0	0	0	0	0	0	0	0	0	0	0	0	0	0	0	0	0	0	0	0	0	0	0	0	0	0	0	0	0	0	0	0	0	0	0	0	0	0	0	0	0	0	0	0	0	0	0	0	0	0	0	0	0	0	0	0	0	0	0	0	0	0	0	0	0	0	0	0	0	0	0	0	0	0	0	0	0	0	0	0	0	0	0	0	0	0	0	0	0	0	0	0	0	0	0	0	
Average # of Memory Banks Accessed per Memory Operation per Warp=-nan

position of mrq chosen
0	0	0	0	0	0	0	0	0	0	0	0	0	0	0	0	

average position of mrq chosen = -nan
Memory Partition 0: 
Cache L2_bank_000:
MSHR contents

Cache L2_bank_001:
MSHR contents

In Dram Latency Queue (total = 0): 
DRAM[0]: 16 bks, busW=4 BL=8 CL=12, tRRD=2 tCCD=6, tRCD=12 tRAS=28 tRP=12 tRC=40
n_cmd=459025 n_nop=220753 n_act=46227 n_pre=46211 n_req=72917 n_rd=104170 n_write=41664 bw_util=0.6354
n_activity=446907 dram_eff=0.6526
bk0: 6502a 225182i bk1: 6492a 219205i bk2: 6464a 210942i bk3: 6464a 205852i bk4: 6484a 196851i bk5: 6484a 193229i bk6: 6528a 185320i bk7: 6528a 175910i bk8: 6528a 214081i bk9: 6528a 211849i bk10: 6528a 210902i bk11: 6528a 202134i bk12: 6528a 195677i bk13: 6528a 190288i bk14: 6528a 178064i bk15: 6528a 168376i 
dram_util_bins: 0 0 0 0 0 0 0 0 0 0
dram_eff_bins: 0 0 0 0 0 0 0 0 0 0
mrqq: max=16 avg=14.5797
Memory Partition 1: 
Cache L2_bank_002:
MSHR contents

Cache L2_bank_003:
MSHR contents

In Dram Latency Queue (total = 0): 
DRAM[1]: 16 bks, busW=4 BL=8 CL=12, tRRD=2 tCCD=6, tRCD=12 tRAS=28 tRP=12 tRC=40
n_cmd=459025 n_nop=219469 n_act=46870 n_pre=46854 n_req=72916 n_rd=104168 n_write=41664 bw_util=0.6354
n_activity=449243 dram_eff=0.6492
bk0: 6500a 222987i bk1: 6492a 215815i bk2: 6464a 208164i bk3: 6464a 202567i bk4: 6484a 200047i bk5: 6484a 190395i bk6: 6528a 182724i bk7: 6528a 172695i bk8: 6528a 215085i bk9: 6528a 209118i bk10: 6528a 205634i bk11: 6528a 199432i bk12: 6528a 197413i bk13: 6528a 185816i bk14: 6528a 179751i bk15: 6528a 170508i 
dram_util_bins: 0 0 0 0 0 0 0 0 0 0
dram_eff_bins: 0 0 0 0 0 0 0 0 0 0
mrqq: max=16 avg=14.2587
Memory Partition 2: 
Cache L2_bank_004:
MSHR contents

Cache L2_bank_005:
MSHR contents

In Dram Latency Queue (total = 0): 
DRAM[2]: 16 bks, busW=4 BL=8 CL=12, tRRD=2 tCCD=6, tRCD=12 tRAS=28 tRP=12 tRC=40
n_cmd=459025 n_nop=220873 n_act=46164 n_pre=46148 n_req=72920 n_rd=104172 n_write=41668 bw_util=0.6354
n_activity=446645 dram_eff=0.653
bk0: 6500a 222834i bk1: 6492a 219021i bk2: 6464a 213195i bk3: 6464a 206260i bk4: 6484a 201158i bk5: 6488a 192030i bk6: 6528a 182250i bk7: 6528a 174595i bk8: 6528a 217243i bk9: 6528a 214343i bk10: 6528a 209479i bk11: 6528a 205978i bk12: 6528a 194077i bk13: 6528a 187471i bk14: 6528a 181799i bk15: 6528a 171560i 
dram_util_bins: 0 0 0 0 0 0 0 0 0 0
dram_eff_bins: 0 0 0 0 0 0 0 0 0 0
mrqq: max=16 avg=14.5722
Memory Partition 3: 
Cache L2_bank_006:
MSHR contents

Cache L2_bank_007:
MSHR contents
MSHR: tag=0x80f21180, atomic=0 1 entries : 0x7fa65cd4adb0 :  mf: uid=7732958, sid02:w31, part=3, addr=0x80f21180, load , size=128, unknown  status = IN_PARTITION_DRAM (347744), 

In Dram Latency Queue (total = 0): 
DRAM[3]: 16 bks, busW=4 BL=8 CL=12, tRRD=2 tCCD=6, tRCD=12 tRAS=28 tRP=12 tRC=40
n_cmd=459025 n_nop=219503 n_act=46849 n_pre=46833 n_req=72920 n_rd=104172 n_write=41668 bw_util=0.6354
n_activity=448995 dram_eff=0.6496
bk0: 6500a 221893i bk1: 6492a 213597i bk2: 6464a 207160i bk3: 6464a 200937i bk4: 6484a 198466i bk5: 6488a 190680i bk6: 6528a 182621i bk7: 6528a 174355i bk8: 6528a 214217i bk9: 6528a 210470i bk10: 6528a 205745i bk11: 6528a 202941i bk12: 6528a 192617i bk13: 6528a 190567i bk14: 6528a 179040i bk15: 6528a 167095i 
dram_util_bins: 0 0 0 0 0 0 0 0 0 0
dram_eff_bins: 0 0 0 0 0 0 0 0 0 0
mrqq: max=16 avg=14.332
Memory Partition 4: 
Cache L2_bank_008:
MSHR contents

Cache L2_bank_009:
MSHR contents

In Dram Latency Queue (total = 0): 
DRAM[4]: 16 bks, busW=4 BL=8 CL=12, tRRD=2 tCCD=6, tRCD=12 tRAS=28 tRP=12 tRC=40
n_cmd=459025 n_nop=220545 n_act=46330 n_pre=46314 n_req=72918 n_rd=104168 n_write=41668 bw_util=0.6354
n_activity=446318 dram_eff=0.6535
bk0: 6496a 219807i bk1: 6492a 212330i bk2: 6464a 207430i bk3: 6464a 203350i bk4: 6484a 200062i bk5: 6488a 193381i bk6: 6528a 182966i bk7: 6528a 179272i bk8: 6528a 219004i bk9: 6528a 207374i bk10: 6528a 207064i bk11: 6528a 200249i bk12: 6528a 193579i bk13: 6528a 187903i bk14: 6528a 179580i bk15: 6528a 170749i 
dram_util_bins: 0 0 0 0 0 0 0 0 0 0
dram_eff_bins: 0 0 0 0 0 0 0 0 0 0
mrqq: max=16 avg=14.8478
Memory Partition 5: 
Cache L2_bank_010:
MSHR contents

Cache L2_bank_011:
MSHR contents

In Dram Latency Queue (total = 0): 
DRAM[5]: 16 bks, busW=4 BL=8 CL=12, tRRD=2 tCCD=6, tRCD=12 tRAS=28 tRP=12 tRC=40
n_cmd=459025 n_nop=219499 n_act=46853 n_pre=46837 n_req=72918 n_rd=104168 n_write=41668 bw_util=0.6354
n_activity=448469 dram_eff=0.6504
bk0: 6496a 222068i bk1: 6492a 216723i bk2: 6464a 211648i bk3: 6464a 201286i bk4: 6484a 197482i bk5: 6488a 187478i bk6: 6528a 184116i bk7: 6528a 173059i bk8: 6528a 214408i bk9: 6528a 207602i bk10: 6528a 206101i bk11: 6528a 203374i bk12: 6528a 196087i bk13: 6528a 188364i bk14: 6528a 176773i bk15: 6528a 166574i 
dram_util_bins: 0 0 0 0 0 0 0 0 0 0
dram_eff_bins: 0 0 0 0 0 0 0 0 0 0
mrqq: max=16 avg=14.368

========= L2 cache stats =========
L2_cache_bank[0]: Access = 26087, Miss = 26045, Miss_rate = 0.998, Pending_hits = 9, Reservation_fails = 25575
L2_cache_bank[1]: Access = 26040, Miss = 26040, Miss_rate = 1.000, Pending_hits = 0, Reservation_fails = 31061
L2_cache_bank[2]: Access = 26072, Miss = 26044, Miss_rate = 0.999, Pending_hits = 6, Reservation_fails = 21703
L2_cache_bank[3]: Access = 26040, Miss = 26040, Miss_rate = 1.000, Pending_hits = 0, Reservation_fails = 28681
L2_cache_bank[4]: Access = 26072, Miss = 26044, Miss_rate = 0.999, Pending_hits = 6, Reservation_fails = 25222
L2_cache_bank[5]: Access = 26042, Miss = 26042, Miss_rate = 1.000, Pending_hits = 0, Reservation_fails = 23470
L2_cache_bank[6]: Access = 26072, Miss = 26044, Miss_rate = 0.999, Pending_hits = 6, Reservation_fails = 20545
L2_cache_bank[7]: Access = 26042, Miss = 26042, Miss_rate = 1.000, Pending_hits = 0, Reservation_fails = 20876
L2_cache_bank[8]: Access = 26042, Miss = 26042, Miss_rate = 1.000, Pending_hits = 0, Reservation_fails = 24435
L2_cache_bank[9]: Access = 26042, Miss = 26042, Miss_rate = 1.000, Pending_hits = 0, Reservation_fails = 36568
L2_cache_bank[10]: Access = 26042, Miss = 26042, Miss_rate = 1.000, Pending_hits = 0, Reservation_fails = 21566
L2_cache_bank[11]: Access = 26042, Miss = 26042, Miss_rate = 1.000, Pending_hits = 0, Reservation_fails = 25316
L2_total_cache_accesses = 312635
L2_total_cache_misses = 312509
L2_total_cache_miss_rate = 0.9996
L2_total_cache_pending_hits = 27
L2_total_cache_reservation_fails = 305018
L2_total_cache_breakdown:
	L2_cache_stats_breakdown[GLOBAL_ACC_R][MISS] = 187500
	L2_cache_stats_breakdown[GLOBAL_ACC_R][RESERVATION_FAIL] = 182901
	L2_cache_stats_breakdown[CONST_ACC_R][HIT] = 11
	L2_cache_stats_breakdown[CONST_ACC_R][HIT_RESERVED] = 3
	L2_cache_stats_breakdown[CONST_ACC_R][MISS] = 1
	L2_cache_stats_breakdown[CONST_ACC_R][RESERVATION_FAIL] = 109
	L2_cache_stats_breakdown[GLOBAL_ACC_W][MISS] = 125000
	L2_cache_stats_breakdown[GLOBAL_ACC_W][RESERVATION_FAIL] = 121218
	L2_cache_stats_breakdown[INST_ACC_R][HIT] = 88
	L2_cache_stats_breakdown[INST_ACC_R][HIT_RESERVED] = 24
	L2_cache_stats_breakdown[INST_ACC_R][MISS] = 8
	L2_cache_stats_breakdown[INST_ACC_R][RESERVATION_FAIL] = 790
L2_cache_data_port_util = 0.000
L2_cache_fill_port_util = 0.300

icnt_total_pkts_mem_to_simt=1063145
icnt_total_pkts_simt_to_mem=812635
LD_mem_lat_dist  0 0 0 0 0 0 0 0 0 0 0 0 0 0 0 0 0 0 0 0 0 0 0 0 0 0 0
ST_mem_lat_dist  0 0 0 0 0 0 0 0 0 0 0 0 0 0 0 0 0 0 0 0 0 0 0 0 0 0 0
----------------------------Interconnect-DETAILS--------------------------------
Class 0:
Packet latency average = 51.3441
	minimum = 6
	maximum = 720
Network latency average = 34.4385
	minimum = 6
	maximum = 621
Slowest packet = 103248
Flit latency average = 25.461
	minimum = 6
	maximum = 621
Slowest flit = 309518
Fragmentation average = 0.515089
	minimum = 0
	maximum = 432
Injected packet rate average = 0.0665948
	minimum = 0.0580566 (at node 5)
	maximum = 0.0750172 (at node 15)
Accepted packet rate average = 0.0665948
	minimum = 0.0580566 (at node 5)
	maximum = 0.0750172 (at node 15)
Injected flit rate average = 0.199781
	minimum = 0.150906 (at node 5)
	maximum = 0.255188 (at node 15)
Accepted flit rate average= 0.199781
	minimum = 0.194693 (at node 16)
	maximum = 0.210334 (at node 9)
Injected packet length average = 2.99995
Accepted packet length average = 2.99995
Total in-flight flits = 0 (0 measured)
====== Overall Traffic Statistics ======
====== Traffic class 0 ======
Packet latency average = 51.3441 (1 samples)
	minimum = 6 (1 samples)
	maximum = 720 (1 samples)
Network latency average = 34.4385 (1 samples)
	minimum = 6 (1 samples)
	maximum = 621 (1 samples)
Flit latency average = 25.461 (1 samples)
	minimum = 6 (1 samples)
	maximum = 621 (1 samples)
Fragmentation average = 0.515089 (1 samples)
	minimum = 0 (1 samples)
	maximum = 432 (1 samples)
Injected packet rate average = 0.0665948 (1 samples)
	minimum = 0.0580566 (1 samples)
	maximum = 0.0750172 (1 samples)
Accepted packet rate average = 0.0665948 (1 samples)
	minimum = 0.0580566 (1 samples)
	maximum = 0.0750172 (1 samples)
Injected flit rate average = 0.199781 (1 samples)
	minimum = 0.150906 (1 samples)
	maximum = 0.255188 (1 samples)
Accepted flit rate average = 0.199781 (1 samples)
	minimum = 0.194693 (1 samples)
	maximum = 0.210334 (1 samples)
Injected packet size average = 2.99995 (1 samples)
Accepted packet size average = 2.99995 (1 samples)
Hops average = 1 (1 samples)
----------------------------END-of-Interconnect-DETAILS-------------------------


gpgpu_simulation_time = 0 days, 0 hrs, 6 min, 29 sec (389 sec)
gpgpu_simulation_rate = 503295 (inst/sec)
gpgpu_simulation_rate = 893 (cycle/sec)
GPGPU-Sim API: Stream Manager State
GPGPU-Sim: detected inactive GPU simulation thread
Options count             : 4000000     
BlackScholesGPU() time    : 387503.562500 msec
Effective memory bandwidth: 0.000103 GB/s
Gigaoptions per second    : 0.000010     
Reading back GPU results...
Checking the results...
...running CPU calculations.
Comparing the results...
L1 norm: 1.729535E-07
Max absolute error: 1.192093E-05
TEST PASSED
Shutting down...
...releasing GPU memory.
...releasing CPU memory.
Shutdown done.
GPGPU-Sim: exit_simulation called
GPGPU-Sim: simulation thread signaled exit

Press ENTER to exit...
