

        *** GPGPU-Sim Simulator Version 3.2.2  [build 0] ***


GPGPU-Sim PTX: simulation mode 0 (can change with PTX_SIM_MODE_FUNC environment variable:
               1=functional simulation only, 0=detailed performance simulator)
GPGPU-Sim: Configuration options:

-network_mode                           1 # Interconnection network mode
-inter_config_file   config_fermi_islip.icnt # Interconnection network config file
-gpgpu_ptx_use_cuobjdump                    1 # Use cuobjdump to extract ptx and sass from binaries
-gpgpu_experimental_lib_support                    0 # Try to extract code from cuda libraries [Broken because of unknown cudaGetExportTable]
-gpgpu_ptx_convert_to_ptxplus                    0 # Convert SASS (native ISA) to ptxplus and run ptxplus
-gpgpu_ptx_force_max_capability                   20 # Force maximum compute capability
-gpgpu_ptx_inst_debug_to_file                    0 # Dump executed instructions' debug information to file
-gpgpu_ptx_inst_debug_file       inst_debug.txt # Executed instructions' debug output file
-gpgpu_ptx_inst_debug_thread_uid                    1 # Thread UID for executed instructions' debug output
-gpgpu_simd_model                       1 # 1 = post-dominator
-gpgpu_shader_core_pipeline              1536:32 # shader core pipeline config, i.e., {<nthread>:<warpsize>}
-gpgpu_tex_cache:l1  4:128:24,L:R:m:N:L,F:128:4,128:2 # per-shader L1 texture cache  (READ-ONLY) config  {<nsets>:<bsize>:<assoc>,<rep>:<wr>:<alloc>:<wr_alloc>,<mshr>:<N>:<merge>,<mq>:<rf>}
-gpgpu_const_cache:l1 64:64:2,L:R:f:N:L,A:2:32,4 # per-shader L1 constant memory cache  (READ-ONLY) config  {<nsets>:<bsize>:<assoc>,<rep>:<wr>:<alloc>:<wr_alloc>,<mshr>:<N>:<merge>,<mq>} 
-gpgpu_cache:il1     4:128:4,L:R:f:N:L,A:2:32,4 # shader L1 instruction cache config  {<nsets>:<bsize>:<assoc>,<rep>:<wr>:<alloc>:<wr_alloc>,<mshr>:<N>:<merge>,<mq>} 
-gpgpu_cache:dl1     32:128:4,L:L:m:N:H,A:32:8,8 # per-shader L1 data cache config  {<nsets>:<bsize>:<assoc>,<rep>:<wr>:<alloc>:<wr_alloc>,<mshr>:<N>:<merge>,<mq> | none}
-gpgpu_cache:dl1PrefL1                 none # per-shader L1 data cache config  {<nsets>:<bsize>:<assoc>,<rep>:<wr>:<alloc>:<wr_alloc>,<mshr>:<N>:<merge>,<mq> | none}
-gpgpu_cache:dl1PreShared                 none # per-shader L1 data cache config  {<nsets>:<bsize>:<assoc>,<rep>:<wr>:<alloc>:<wr_alloc>,<mshr>:<N>:<merge>,<mq> | none}
-gmem_skip_L1D                          0 # global memory access skip L1D cache (implements -Xptxas -dlcm=cg, default=no skip)
-gpgpu_perfect_mem                      0 # enable perfect memory mode (no cache miss)
-n_regfile_gating_group                    4 # group of lanes that should be read/written together)
-gpgpu_clock_gated_reg_file                    0 # enable clock gated reg file for power calculations
-gpgpu_clock_gated_lanes                    0 # enable clock gated lanes for power calculations
-gpgpu_shader_registers                32768 # Number of registers per shader core. Limits number of concurrent CTAs. (default 8192)
-gpgpu_shader_cta                       8 # Maximum number of concurrent CTAs in shader (default 8)
-gpgpu_num_cta_barriers                   16 # Maximum number of named barriers per CTA (default 16)
-gpgpu_n_clusters                      15 # number of processing clusters
-gpgpu_n_cores_per_cluster                    1 # number of simd cores per cluster
-gpgpu_n_cluster_ejection_buffer_size                    8 # number of packets in ejection buffer
-gpgpu_n_ldst_response_buffer_size                    2 # number of response packets in ld/st unit ejection buffer
-gpgpu_shmem_size                   16384 # Size of shared memory per shader core (default 16kB)
-gpgpu_shmem_size                   49152 # Size of shared memory per shader core (default 16kB)
-gpgpu_shmem_size_PrefL1                16384 # Size of shared memory per shader core (default 16kB)
-gpgpu_shmem_size_PrefShared                16384 # Size of shared memory per shader core (default 16kB)
-gpgpu_shmem_num_banks                   32 # Number of banks in the shared memory in each shader core (default 16)
-gpgpu_shmem_limited_broadcast                    0 # Limit shared memory to do one broadcast per cycle (default on)
-gpgpu_shmem_warp_parts                    1 # Number of portions a warp is divided into for shared memory bank conflict check 
-gpgpu_warpdistro_shader                   -1 # Specify which shader core to collect the warp size distribution from
-gpgpu_warp_issue_shader                    0 # Specify which shader core to collect the warp issue distribution from
-gpgpu_local_mem_map                    1 # Mapping from local memory space address to simulated GPU physical address space (default = enabled)
-gpgpu_num_reg_banks                   16 # Number of register banks (default = 8)
-gpgpu_reg_bank_use_warp_id                    0 # Use warp ID in mapping registers to banks (default = off)
-gpgpu_operand_collector_num_units_sp                    6 # number of collector units (default = 4)
-gpgpu_operand_collector_num_units_sfu                    8 # number of collector units (default = 4)
-gpgpu_operand_collector_num_units_mem                    2 # number of collector units (default = 2)
-gpgpu_operand_collector_num_units_gen                    0 # number of collector units (default = 0)
-gpgpu_operand_collector_num_in_ports_sp                    2 # number of collector unit in ports (default = 1)
-gpgpu_operand_collector_num_in_ports_sfu                    1 # number of collector unit in ports (default = 1)
-gpgpu_operand_collector_num_in_ports_mem                    1 # number of collector unit in ports (default = 1)
-gpgpu_operand_collector_num_in_ports_gen                    0 # number of collector unit in ports (default = 0)
-gpgpu_operand_collector_num_out_ports_sp                    2 # number of collector unit in ports (default = 1)
-gpgpu_operand_collector_num_out_ports_sfu                    1 # number of collector unit in ports (default = 1)
-gpgpu_operand_collector_num_out_ports_mem                    1 # number of collector unit in ports (default = 1)
-gpgpu_operand_collector_num_out_ports_gen                    0 # number of collector unit in ports (default = 0)
-gpgpu_coalesce_arch                   13 # Coalescing arch (default = 13, anything else is off for now)
-gpgpu_num_sched_per_core                    2 # Number of warp schedulers per core
-gpgpu_max_insn_issue_per_warp                    1 # Max number of instructions that can be issued per warp in one cycle by scheduler
-gpgpu_simt_core_sim_order                    1 # Select the simulation order of cores in a cluster (0=Fix, 1=Round-Robin)
-gpgpu_pipeline_widths        2,1,1,2,1,1,2 # Pipeline widths ID_OC_SP,ID_OC_SFU,ID_OC_MEM,OC_EX_SP,OC_EX_SFU,OC_EX_MEM,EX_WB
-gpgpu_num_sp_units                     2 # Number of SP units (default=1)
-gpgpu_num_sfu_units                    1 # Number of SF units (default=1)
-gpgpu_num_mem_units                    1 # Number if ldst units (default=1) WARNING: not hooked up to anything
-gpgpu_scheduler                      gto # Scheduler configuration: < lrr | gto | two_level_active > If two_level_active:<num_active_warps>:<inner_prioritization>:<outer_prioritization>For complete list of prioritization values see shader.h enum scheduler_prioritization_typeDefault: gto
-gpgpu_dram_scheduler                    1 # 0 = fifo, 1 = FR-FCFS (defaul)
-gpgpu_dram_partition_queues              8:8:8:8 # i2$:$2d:d2$:$2i
-l2_ideal                               0 # Use a ideal L2 cache that always hit
-gpgpu_cache:dl2     64:128:8,L:B:m:W:L,A:32:4,4:0,32 # unified banked L2 data cache config  {<nsets>:<bsize>:<assoc>,<rep>:<wr>:<alloc>:<wr_alloc>,<mshr>:<N>:<merge>,<mq>}
-gpgpu_cache:dl2_texture_only                    0 # L2 cache used for texture only
-gpgpu_n_mem                            6 # number of memory modules (e.g. memory controllers) in gpu
-gpgpu_n_sub_partition_per_mchannel                    2 # number of memory subpartition in each memory module
-gpgpu_n_mem_per_ctrlr                    2 # number of memory chips per memory controller
-gpgpu_memlatency_stat                   14 # track and display latency statistics 0x2 enables MC, 0x4 enables queue logs
-gpgpu_frfcfs_dram_sched_queue_size                   16 # 0 = unlimited (default); # entries per chip
-gpgpu_dram_return_queue_size                  116 # 0 = unlimited (default); # entries per chip
-gpgpu_dram_buswidth                    8 # default = 4 bytes (8 bytes per cycle at DDR)
-gpgpu_dram_burst_length                    8 # Burst length of each DRAM request (default = 4 data bus cycle)
-dram_data_command_freq_ratio                    4 # Frequency ratio between DRAM data bus and command bus (default = 2 times, i.e. DDR)
-gpgpu_dram_timing_opt nbk=16:CCD=2:RRD=6:RCD=12:RAS=28:RP=12:RC=40: CL=12:WL=4:CDLR=5:WR=12:nbkgrp=4:CCDL=3:RTPL=2 # DRAM timing parameters = {nbk:tCCD:tRRD:tRCD:tRAS:tRP:tRC:CL:WL:tCDLR:tWR:nbkgrp:tCCDL:tRTPL}
-rop_latency                          120 # ROP queue latency (default 85)
-dram_latency                         100 # DRAM latency (default 30)
-gpgpu_mem_addr_mapping dramid@8;00000000.00000000.00000000.00000000.0000RRRR.RRRRRRRR.BBBCCCCB.CCSSSSSS # mapping memory address to dram model {dramid@<start bit>;<memory address map>}
-gpgpu_mem_addr_test                    0 # run sweep test to check address mapping for aliased address
-gpgpu_mem_address_mask                    1 # 0 = old addressing mask, 1 = new addressing mask, 2 = new add. mask + flipped bank sel and chip sel bits
-gpuwattch_xml_file  gpuwattch_gtx480.xml # GPUWattch XML file
-power_simulation_enabled                    0 # Turn on power simulator (1=On, 0=Off)
-power_per_cycle_dump                    0 # Dump detailed power output each cycle
-power_trace_enabled                    0 # produce a file for the power trace (1=On, 0=Off)
-power_trace_zlevel                     6 # Compression level of the power trace output log (0=no comp, 9=highest)
-steady_power_levels_enabled                    0 # produce a file for the steady power levels (1=On, 0=Off)
-steady_state_definition                  8:4 # allowed deviation:number of samples
-gpgpu_max_cycle                        0 # terminates gpu simulation early (0 = no limit)
-gpgpu_max_insn                         0 # terminates gpu simulation early (0 = no limit)
-gpgpu_max_cta                          0 # terminates gpu simulation early (0 = no limit)
-gpgpu_runtime_stat                   500 # display runtime statistics such as dram utilization {<freq>:<flag>}
-liveness_message_freq                    1 # Minimum number of seconds between simulation liveness messages (0 = always print)
-gpgpu_flush_l1_cache                    0 # Flush L1 cache at the end of each kernel call
-gpgpu_flush_l2_cache                    0 # Flush L2 cache at the end of each kernel call
-gpgpu_deadlock_detect                    1 # Stop the simulation at deadlock (1=on (default), 0=off)
-gpgpu_ptx_instruction_classification                    0 # if enabled will classify ptx instruction types per kernel (Max 255 kernels now)
-gpgpu_ptx_sim_mode                     0 # Select between Performance (default) or Functional simulation (1)
-gpgpu_clock_domains 700.0:700.0:700.0:924.0 # Clock Domain Frequencies in MhZ {<Core Clock>:<ICNT Clock>:<L2 Clock>:<DRAM Clock>}
-gpgpu_max_concurrent_kernel                    8 # maximum kernels that can run concurrently on GPU
-gpgpu_cflog_interval                    0 # Interval between each snapshot in control flow logger
-visualizer_enabled                     0 # Turn on visualizer output (1=On, 0=Off)
-visualizer_outputfile                 NULL # Specifies the output log file for visualizer
-visualizer_zlevel                      6 # Compression level of the visualizer output log (0=no comp, 9=highest)
-trace_enabled                          0 # Turn on traces
-trace_components                    none # comma seperated list of traces to enable. Complete list found in trace_streams.tup. Default none
-trace_sampling_core                    0 # The core which is printed using CORE_DPRINTF. Default 0
-trace_sampling_memory_partition                   -1 # The memory partition which is printed using MEMPART_DPRINTF. Default -1 (i.e. all)
-enable_ptx_file_line_stats                    1 # Turn on PTX source line statistic profiling. (1 = On)
-ptx_line_stats_filename gpgpu_inst_stats.txt # Output file for PTX source line statistics.
-save_embedded_ptx                      0 # saves ptx files embedded in binary as <n>.ptx
-keep                                   0 # keep intermediate files created by GPGPU-Sim when interfacing with external programs
-gpgpu_ptx_save_converted_ptxplus                    0 # Saved converted ptxplus to a file
-ptx_opcode_latency_int         4,13,4,5,145 # Opcode latencies for integers <ADD,MAX,MUL,MAD,DIV>Default 1,1,19,25,145
-ptx_opcode_latency_fp          4,13,4,5,39 # Opcode latencies for single precision floating points <ADD,MAX,MUL,MAD,DIV>Default 1,1,1,1,30
-ptx_opcode_latency_dp         8,19,8,8,330 # Opcode latencies for double precision floating points <ADD,MAX,MUL,MAD,DIV>Default 8,8,8,8,335
-ptx_opcode_initiation_int            1,2,2,1,8 # Opcode initiation intervals for integers <ADD,MAX,MUL,MAD,DIV>Default 1,1,4,4,32
-ptx_opcode_initiation_fp            1,2,1,1,4 # Opcode initiation intervals for single precision floating points <ADD,MAX,MUL,MAD,DIV>Default 1,1,1,1,5
-ptx_opcode_initiation_dp         8,16,8,8,130 # Opcode initiation intervals for double precision floating points <ADD,MAX,MUL,MAD,DIV>Default 8,8,8,8,130
DRAM Timing Options:
nbk                                    16 # number of banks
CCD                                     2 # column to column delay
RRD                                     6 # minimal delay between activation of rows in different banks
RCD                                    12 # row to column delay
RAS                                    28 # time needed to activate row
RP                                     12 # time needed to precharge (deactivate) row
RC                                     40 # row cycle time
CDLR                                    5 # switching from write to read (changes tWTR)
WR                                     12 # last data-in to row precharge
CL                                     12 # CAS latency
WL                                      4 # Write latency
nbkgrp                                  4 # number of bank groups
CCDL                                    3 # column to column delay between accesses to different bank groups
RTPL                                    2 # read to precharge delay between accesses to different bank groups
Total number of memory sub partition = 12
addr_dec_mask[CHIP]  = 0000000000000000 	high:64 low:0
addr_dec_mask[BK]    = 000000000000e100 	high:16 low:8
addr_dec_mask[ROW]   = 000000000fff0000 	high:28 low:16
addr_dec_mask[COL]   = 0000000000001eff 	high:13 low:0
addr_dec_mask[BURST] = 000000000000003f 	high:6 low:0
sub_partition_id_mask = 0000000000000100
GPGPU-Sim uArch: clock freqs: 700000000.000000:700000000.000000:700000000.000000:924000000.000000
GPGPU-Sim uArch: clock periods: 0.00000000142857142857:0.00000000142857142857:0.00000000142857142857:0.00000000108225108225
*** Initializing Memory Statistics ***
GPGPU-Sim uArch: interconnect node map (shaderID+MemID to icntID)
GPGPU-Sim uArch: Memory nodes ID start from index: 15
GPGPU-Sim uArch:    0   1   2   3   4
GPGPU-Sim uArch:    5   6   7   8   9
GPGPU-Sim uArch:   10  11  12  13  14
GPGPU-Sim uArch:   15  16  17  18  19
GPGPU-Sim uArch:   20  21  22  23  24
GPGPU-Sim uArch:   25  26
GPGPU-Sim uArch: interconnect node reverse map (icntID to shaderID+MemID)
GPGPU-Sim uArch: Memory nodes start from ID: 15
GPGPU-Sim uArch:    0   1   2   3   4
GPGPU-Sim uArch:    5   6   7   8   9
GPGPU-Sim uArch:   10  11  12  13  14
GPGPU-Sim uArch:   15  16  17  18  19
GPGPU-Sim uArch:   20  21  22  23  24
GPGPU-Sim uArch:   25  26
916227844eacf47b27f90dc95594571e  /sciclone/data20/adwait/applications/benchmarks/CUDA/kmeans/gpgpu_ptx_sim__kmeans
GPGPU-Sim uArch: performance model initialization complete.
GPGPU-Sim PTX: __cudaRegisterFatBinary, fat_cubin_handle = 1, filename=kmeans_cuda.cu
self exe links to: /sciclone/data20/adwait/applications/benchmarks/CUDA/kmeans/gpgpu_ptx_sim__kmeans
Running md5sum using "md5sum /sciclone/data20/adwait/applications/benchmarks/CUDA/kmeans/gpgpu_ptx_sim__kmeans "
Parsing file _cuobjdump_complete_output_ZmhJKu
######### cuobjdump parser ########
## Adding new section ELF
Adding arch: sm_20
Adding identifier: kmeans_cuda.cu
## Adding new section PTX
Adding ptx filename: _cuobjdump_1.ptx
Adding arch: sm_20
Adding identifier: kmeans_cuda.cu
Done parsing!!!
GPGPU-Sim PTX: __cudaRegisterFunction _Z11kmeansPointPfiiiPiS_S_S0_ : hostFun 0x0x402e47, fat_cubin_handle = 1
GPGPU-Sim PTX: instruction assembly for function '_Z14invert_mappingPfS_ii'...   done.
GPGPU-Sim PTX: finding reconvergence points for '_Z14invert_mappingPfS_ii'...
GPGPU-Sim PTX: Finding dominators for '_Z14invert_mappingPfS_ii'...
GPGPU-Sim PTX: Finding immediate dominators for '_Z14invert_mappingPfS_ii'...
GPGPU-Sim PTX: Finding postdominators for '_Z14invert_mappingPfS_ii'...
GPGPU-Sim PTX: Finding immediate postdominators for '_Z14invert_mappingPfS_ii'...
GPGPU-Sim PTX: pre-decoding instructions for '_Z14invert_mappingPfS_ii'...
GPGPU-Sim PTX: reconvergence points for _Z14invert_mappingPfS_ii...
GPGPU-Sim PTX:  1 (potential) branch divergence @  PC=0x038 (_1.ptx:70) @%p1 bra $Lt_0_2050;
GPGPU-Sim PTX:    immediate post dominator      @  PC=0x110 (_1.ptx:103) exit;
GPGPU-Sim PTX:  2 (potential) branch divergence @  PC=0x058 (_1.ptx:74) @%p2 bra $Lt_0_2562;
GPGPU-Sim PTX:    immediate post dominator      @  PC=0x110 (_1.ptx:103) exit;
GPGPU-Sim PTX:  3 (potential) branch divergence @  PC=0x108 (_1.ptx:99) @%p3 bra $Lt_0_3074;
GPGPU-Sim PTX:    immediate post dominator      @  PC=0x110 (_1.ptx:103) exit;
GPGPU-Sim PTX: ... end of reconvergence points for _Z14invert_mappingPfS_ii
GPGPU-Sim PTX: ... done pre-decoding instructions for '_Z14invert_mappingPfS_ii'.
GPGPU-Sim PTX: allocating global region for "t_features" from 0x100 to 0x104 (global memory space)
GPGPU-Sim PTX: allocating constant region for "c_clusters" from 0x180 to 0x1280 (global memory space) 1
GPGPU-Sim PTX: instruction assembly for function '_Z11kmeansPointPfiiiPiS_S_S0_'...   done.
GPGPU-Sim PTX: finding reconvergence points for '_Z11kmeansPointPfiiiPiS_S_S0_'...
GPGPU-Sim PTX: Finding dominators for '_Z11kmeansPointPfiiiPiS_S_S0_'...
GPGPU-Sim PTX: Finding immediate dominators for '_Z11kmeansPointPfiiiPiS_S_S0_'...
GPGPU-Sim PTX: Finding postdominators for '_Z11kmeansPointPfiiiPiS_S_S0_'...
GPGPU-Sim PTX: Finding immediate postdominators for '_Z11kmeansPointPfiiiPiS_S_S0_'...
GPGPU-Sim PTX: pre-decoding instructions for '_Z11kmeansPointPfiiiPiS_S_S0_'...
GPGPU-Sim PTX: reconvergence points for _Z11kmeansPointPfiiiPiS_S_S0_...
GPGPU-Sim PTX:  1 (potential) branch divergence @  PC=0x180 (_1.ptx:138) @!%p1 bra $Lt_1_4866;
GPGPU-Sim PTX:    immediate post dominator      @  PC=0x338 (_1.ptx:207) @!%p1 bra $Lt_1_7682;
GPGPU-Sim PTX:  2 (potential) branch divergence @  PC=0x1a0 (_1.ptx:142) @%p2 bra $Lt_1_8194;
GPGPU-Sim PTX:    immediate post dominator      @  PC=0x338 (_1.ptx:207) @!%p1 bra $Lt_1_7682;
GPGPU-Sim PTX:  3 (potential) branch divergence @  PC=0x1f0 (_1.ptx:154) @!%p3 bra $Lt_1_8450;
GPGPU-Sim PTX:    immediate post dominator      @  PC=0x2e0 (_1.ptx:190) setp.lt.f32 %p5, %f2, %f1;
GPGPU-Sim PTX:  4 (potential) branch divergence @  PC=0x2c8 (_1.ptx:185) @%p4 bra $Lt_1_6402;
GPGPU-Sim PTX:    immediate post dominator      @  PC=0x2d0 (_1.ptx:186) bra.uni $Lt_1_5890;
GPGPU-Sim PTX:  5 (potential) branch divergence @  PC=0x2d0 (_1.ptx:186) bra.uni $Lt_1_5890;
GPGPU-Sim PTX:    immediate post dominator      @  PC=0x2e0 (_1.ptx:190) setp.lt.f32 %p5, %f2, %f1;
GPGPU-Sim PTX:  6 (potential) branch divergence @  PC=0x2e8 (_1.ptx:191) @!%p5 bra $Lt_1_6914;
GPGPU-Sim PTX:    immediate post dominator      @  PC=0x300 (_1.ptx:197) add.s32 %r18, %r18, 1;
GPGPU-Sim PTX:  7 (potential) branch divergence @  PC=0x310 (_1.ptx:199) @%p6 bra $Lt_1_5634;
GPGPU-Sim PTX:    immediate post dominator      @  PC=0x318 (_1.ptx:200) bra.uni $Lt_1_4610;
GPGPU-Sim PTX:  8 (potential) branch divergence @  PC=0x318 (_1.ptx:200) bra.uni $Lt_1_4610;
GPGPU-Sim PTX:    immediate post dominator      @  PC=0x338 (_1.ptx:207) @!%p1 bra $Lt_1_7682;
GPGPU-Sim PTX:  9 (potential) branch divergence @  PC=0x328 (_1.ptx:203) bra.uni $Lt_1_4610;
GPGPU-Sim PTX:    immediate post dominator      @  PC=0x338 (_1.ptx:207) @!%p1 bra $Lt_1_7682;
GPGPU-Sim PTX: 10 (potential) branch divergence @  PC=0x338 (_1.ptx:207) @!%p1 bra $Lt_1_7682;
GPGPU-Sim PTX:    immediate post dominator      @  PC=0x368 (_1.ptx:216) exit;
GPGPU-Sim PTX: ... end of reconvergence points for _Z11kmeansPointPfiiiPiS_S_S0_
GPGPU-Sim PTX: ... done pre-decoding instructions for '_Z11kmeansPointPfiiiPiS_S_S0_'.
GPGPU-Sim PTX: allocating global region for "t_features_flipped" from 0x1280 to 0x1284 (global memory space)
GPGPU-Sim PTX: allocating global region for "t_clusters" from 0x1284 to 0x1288 (global memory space)
GPGPU-Sim PTX: finished parsing EMBEDDED .ptx file _1.ptx
Adding _cuobjdump_1.ptx with cubin handle 1
GPGPU-Sim PTX: extracting embedded .ptx to temporary file "_ptx_xVzenL"
Running: cat _ptx_xVzenL | sed 's/.version 1.5/.version 1.4/' | sed 's/, texmode_independent//' | sed 's/\(\.extern \.const\[1\] .b8 \w\+\)\[\]/\1\[1\]/' | sed 's/const\[.\]/const\[0\]/g' > _ptx2_yLNCy2
GPGPU-Sim PTX: generating ptxinfo using "$CUDA_INSTALL_PATH/bin/ptxas --gpu-name=sm_20 -v _ptx2_yLNCy2 --output-file  /dev/null 2> _ptx_xVzenLinfo"
GPGPU-Sim PTX: Kernel '_Z11kmeansPointPfiiiPiS_S_S0_' : regs=12, lmem=0, smem=0, cmem=4440
GPGPU-Sim PTX: Kernel '_Z14invert_mappingPfS_ii' : regs=10, lmem=0, smem=0, cmem=4408
GPGPU-Sim PTX: removing ptxinfo using "rm -f _ptx_xVzenL _ptx2_yLNCy2 _ptx_xVzenLinfo"
GPGPU-Sim PTX: loading globals with explicit initializers... 
GPGPU-Sim PTX: finished loading globals (0 bytes total).
GPGPU-Sim PTX: loading constants with explicit initializers...  done.
GPGPU-Sim PTX: __cudaRegisterFunction _Z14invert_mappingPfS_ii : hostFun 0x0x402cb7, fat_cubin_handle = 1
GPGPU-Sim PTX: in __cudaRegisterTexture:
GPGPU-Sim PTX:   int dim = 1
GPGPU-Sim PTX:   int norm = 0
GPGPU-Sim PTX:   int ext = 0
GPGPU-Sim PTX:   Execution warning: Not finished implementing "void __cudaRegisterTexture(void**, const textureReference*, const void**, const char*, int, int, int)"
GPGPU-Sim PTX: in __cudaRegisterTexture:
GPGPU-Sim PTX:   int dim = 1
GPGPU-Sim PTX:   int norm = 0
GPGPU-Sim PTX:   int ext = 0
GPGPU-Sim PTX:   Execution warning: Not finished implementing "void __cudaRegisterTexture(void**, const textureReference*, const void**, const char*, int, int, int)"
GPGPU-Sim PTX: in __cudaRegisterTexture:
GPGPU-Sim PTX:   int dim = 1
GPGPU-Sim PTX:   int norm = 0
GPGPU-Sim PTX:   int ext = 0
GPGPU-Sim PTX:   Execution warning: Not finished implementing "void __cudaRegisterTexture(void**, const textureReference*, const void**, const char*, int, int, int)"
GPGPU-Sim PTX: __cudaRegisterVar: hostVar = 0x6085e0; deviceAddress = c_clusters; deviceName = c_clusters
GPGPU-Sim PTX: __cudaRegisterVar: Registering const memory space of 4352 bytes
GPGPU-Sim PTX registering constant c_clusters (4352 bytes) to name mapping

I/O completed

Number of objects: 204800
Number of features: 34

GPGPU-Sim PTX: cudaLaunch for 0x0x402cb7 (mode=performance simulation) on stream 0
GPGPU-Sim PTX: pushing kernel '_Z14invert_mappingPfS_ii' to stream 0, gridDim= (841,1,1) blockDim = (256,1,1) 
kernel '_Z14invert_mappingPfS_ii' transfer to GPU hardware scheduler
GPGPU-Sim uArch: Shader 1 bind to kernel 1 '_Z14invert_mappingPfS_ii'
GPGPU-Sim uArch: CTA/core = 6, limited by: threads
GPGPU-Sim uArch: core:  1, cta: 0 initialized @(1,0)
GPGPU-Sim uArch: Shader 2 bind to kernel 1 '_Z14invert_mappingPfS_ii'
GPGPU-Sim uArch: core:  2, cta: 0 initialized @(1,0)
GPGPU-Sim uArch: Shader 3 bind to kernel 1 '_Z14invert_mappingPfS_ii'
GPGPU-Sim uArch: core:  3, cta: 0 initialized @(1,0)
GPGPU-Sim uArch: Shader 4 bind to kernel 1 '_Z14invert_mappingPfS_ii'
GPGPU-Sim uArch: core:  4, cta: 0 initialized @(1,0)
GPGPU-Sim uArch: Shader 5 bind to kernel 1 '_Z14invert_mappingPfS_ii'
GPGPU-Sim uArch: core:  5, cta: 0 initialized @(1,0)
GPGPU-Sim uArch: Shader 6 bind to kernel 1 '_Z14invert_mappingPfS_ii'
GPGPU-Sim uArch: core:  6, cta: 0 initialized @(1,0)
GPGPU-Sim uArch: Shader 7 bind to kernel 1 '_Z14invert_mappingPfS_ii'
GPGPU-Sim uArch: core:  7, cta: 0 initialized @(1,0)
GPGPU-Sim uArch: Shader 8 bind to kernel 1 '_Z14invert_mappingPfS_ii'
GPGPU-Sim uArch: core:  8, cta: 0 initialized @(1,0)
GPGPU-Sim uArch: Shader 9 bind to kernel 1 '_Z14invert_mappingPfS_ii'
GPGPU-Sim uArch: core:  9, cta: 0 initialized @(1,0)
GPGPU-Sim uArch: Shader 10 bind to kernel 1 '_Z14invert_mappingPfS_ii'
GPGPU-Sim uArch: core: 10, cta: 0 initialized @(1,0)
GPGPU-Sim uArch: Shader 11 bind to kernel 1 '_Z14invert_mappingPfS_ii'
GPGPU-Sim uArch: core: 11, cta: 0 initialized @(1,0)
GPGPU-Sim uArch: Shader 12 bind to kernel 1 '_Z14invert_mappingPfS_ii'
GPGPU-Sim uArch: core: 12, cta: 0 initialized @(1,0)
GPGPU-Sim uArch: Shader 13 bind to kernel 1 '_Z14invert_mappingPfS_ii'
GPGPU-Sim uArch: core: 13, cta: 0 initialized @(1,0)
GPGPU-Sim uArch: Shader 14 bind to kernel 1 '_Z14invert_mappingPfS_ii'
GPGPU-Sim uArch: core: 14, cta: 0 initialized @(1,0)
GPGPU-Sim uArch: Shader 0 bind to kernel 1 '_Z14invert_mappingPfS_ii'
GPGPU-Sim uArch: core:  0, cta: 0 initialized @(1,0)
GPGPU-Sim uArch: core:  1, cta: 1 initialized @(2,0)
GPGPU-Sim uArch: core:  2, cta: 1 initialized @(2,0)
GPGPU-Sim uArch: core:  3, cta: 1 initialized @(2,0)
GPGPU-Sim uArch: core:  4, cta: 1 initialized @(2,0)
GPGPU-Sim uArch: core:  5, cta: 1 initialized @(2,0)
GPGPU-Sim uArch: core:  6, cta: 1 initialized @(2,0)
GPGPU-Sim uArch: core:  7, cta: 1 initialized @(2,0)
GPGPU-Sim uArch: core:  8, cta: 1 initialized @(2,0)
GPGPU-Sim uArch: core:  9, cta: 1 initialized @(2,0)
GPGPU-Sim uArch: core: 10, cta: 1 initialized @(2,0)
GPGPU-Sim uArch: core: 11, cta: 1 initialized @(2,0)
GPGPU-Sim uArch: core: 12, cta: 1 initialized @(2,0)
GPGPU-Sim uArch: core: 13, cta: 1 initialized @(2,0)
GPGPU-Sim uArch: core: 14, cta: 1 initialized @(2,0)
GPGPU-Sim uArch: core:  0, cta: 1 initialized @(2,0)
GPGPU-Sim uArch: core:  1, cta: 2 initialized @(3,0)
GPGPU-Sim uArch: core:  2, cta: 2 initialized @(3,0)
GPGPU-Sim uArch: core:  3, cta: 2 initialized @(3,0)
GPGPU-Sim uArch: core:  4, cta: 2 initialized @(3,0)
GPGPU-Sim uArch: core:  5, cta: 2 initialized @(3,0)
GPGPU-Sim uArch: core:  6, cta: 2 initialized @(3,0)
GPGPU-Sim uArch: core:  7, cta: 2 initialized @(3,0)
GPGPU-Sim uArch: core:  8, cta: 2 initialized @(3,0)
GPGPU-Sim uArch: core:  9, cta: 2 initialized @(3,0)
GPGPU-Sim uArch: core: 10, cta: 2 initialized @(3,0)
GPGPU-Sim uArch: core: 11, cta: 2 initialized @(3,0)
GPGPU-Sim uArch: core: 12, cta: 2 initialized @(3,0)
GPGPU-Sim uArch: core: 13, cta: 2 initialized @(3,0)
GPGPU-Sim uArch: core: 14, cta: 2 initialized @(3,0)
GPGPU-Sim uArch: core:  0, cta: 2 initialized @(3,0)
GPGPU-Sim uArch: core:  1, cta: 3 initialized @(4,0)
GPGPU-Sim uArch: core:  2, cta: 3 initialized @(4,0)
GPGPU-Sim uArch: core:  3, cta: 3 initialized @(4,0)
GPGPU-Sim uArch: core:  4, cta: 3 initialized @(4,0)
GPGPU-Sim uArch: core:  5, cta: 3 initialized @(4,0)
GPGPU-Sim uArch: core:  6, cta: 3 initialized @(4,0)
GPGPU-Sim uArch: core:  7, cta: 3 initialized @(4,0)
GPGPU-Sim uArch: core:  8, cta: 3 initialized @(4,0)
GPGPU-Sim uArch: core:  9, cta: 3 initialized @(4,0)
GPGPU-Sim uArch: core: 10, cta: 3 initialized @(4,0)
GPGPU-Sim uArch: core: 11, cta: 3 initialized @(4,0)
GPGPU-Sim uArch: core: 12, cta: 3 initialized @(4,0)
GPGPU-Sim uArch: core: 13, cta: 3 initialized @(4,0)
GPGPU-Sim uArch: core: 14, cta: 3 initialized @(4,0)
GPGPU-Sim uArch: core:  0, cta: 3 initialized @(4,0)
GPGPU-Sim uArch: core:  1, cta: 4 initialized @(5,0)
GPGPU-Sim uArch: core:  2, cta: 4 initialized @(5,0)
GPGPU-Sim uArch: core:  3, cta: 4 initialized @(5,0)
GPGPU-Sim uArch: core:  4, cta: 4 initialized @(5,0)
GPGPU-Sim uArch: core:  5, cta: 4 initialized @(5,0)
GPGPU-Sim uArch: core:  6, cta: 4 initialized @(5,0)
GPGPU-Sim uArch: core:  7, cta: 4 initialized @(5,0)
GPGPU-Sim uArch: core:  8, cta: 4 initialized @(5,0)
GPGPU-Sim uArch: core:  9, cta: 4 initialized @(5,0)
GPGPU-Sim uArch: core: 10, cta: 4 initialized @(5,0)
GPGPU-Sim uArch: core: 11, cta: 4 initialized @(5,0)
GPGPU-Sim uArch: core: 12, cta: 4 initialized @(5,0)
GPGPU-Sim uArch: core: 13, cta: 4 initialized @(5,0)
GPGPU-Sim uArch: core: 14, cta: 4 initialized @(5,0)
GPGPU-Sim uArch: core:  0, cta: 4 initialized @(5,0)
GPGPU-Sim uArch: core:  1, cta: 5 initialized @(6,0)
GPGPU-Sim uArch: core:  2, cta: 5 initialized @(6,0)
GPGPU-Sim uArch: core:  3, cta: 5 initialized @(6,0)
GPGPU-Sim uArch: core:  4, cta: 5 initialized @(6,0)
GPGPU-Sim uArch: core:  5, cta: 5 initialized @(6,0)
GPGPU-Sim uArch: core:  6, cta: 5 initialized @(6,0)
GPGPU-Sim uArch: core:  7, cta: 5 initialized @(6,0)
GPGPU-Sim uArch: core:  8, cta: 5 initialized @(6,0)
GPGPU-Sim uArch: core:  9, cta: 5 initialized @(6,0)
GPGPU-Sim uArch: core: 10, cta: 5 initialized @(6,0)
GPGPU-Sim uArch: core: 11, cta: 5 initialized @(6,0)
GPGPU-Sim uArch: core: 12, cta: 5 initialized @(6,0)
GPGPU-Sim uArch: core: 13, cta: 5 initialized @(6,0)
GPGPU-Sim uArch: core: 14, cta: 5 initialized @(6,0)
GPGPU-Sim uArch: core:  0, cta: 5 initialized @(6,0)
GPGPU-Sim PTX: 100000 instructions simulated : ctaid=(64,0,0) tid=(223,0,0)
GPGPU-Sim uArch: cycles simulated: 500  inst.: 112096 (ipc=224.2) sim_rate=37365 (inst/sec) elapsed = 0:0:00:03 / Sun Feb 28 18:46:40 2016
GPGPU-Sim PTX: 200000 instructions simulated : ctaid=(23,0,0) tid=(95,0,0)
GPGPU-Sim PTX: 300000 instructions simulated : ctaid=(77,0,0) tid=(31,0,0)
GPGPU-Sim uArch: cycles simulated: 1000  inst.: 328704 (ipc=328.7) sim_rate=82176 (inst/sec) elapsed = 0:0:00:04 / Sun Feb 28 18:46:41 2016
GPGPU-Sim PTX: 400000 instructions simulated : ctaid=(59,0,0) tid=(223,0,0)
GPGPU-Sim PTX: 500000 instructions simulated : ctaid=(12,0,0) tid=(127,0,0)
GPGPU-Sim uArch: cycles simulated: 2000  inst.: 522240 (ipc=261.1) sim_rate=104448 (inst/sec) elapsed = 0:0:00:05 / Sun Feb 28 18:46:42 2016
GPGPU-Sim uArch: cycles simulated: 3000  inst.: 526752 (ipc=175.6) sim_rate=87792 (inst/sec) elapsed = 0:0:00:06 / Sun Feb 28 18:46:43 2016
GPGPU-Sim uArch: cycles simulated: 4000  inst.: 534272 (ipc=133.6) sim_rate=76324 (inst/sec) elapsed = 0:0:00:07 / Sun Feb 28 18:46:44 2016
GPGPU-Sim uArch: cycles simulated: 5500  inst.: 543392 (ipc=98.8) sim_rate=67924 (inst/sec) elapsed = 0:0:00:08 / Sun Feb 28 18:46:45 2016
GPGPU-Sim PTX: 600000 instructions simulated : ctaid=(21,0,0) tid=(95,0,0)
GPGPU-Sim uArch: cycles simulated: 6500  inst.: 552864 (ipc=85.1) sim_rate=61429 (inst/sec) elapsed = 0:0:00:09 / Sun Feb 28 18:46:46 2016
GPGPU-Sim uArch: cycles simulated: 7500  inst.: 564416 (ipc=75.3) sim_rate=56441 (inst/sec) elapsed = 0:0:00:10 / Sun Feb 28 18:46:47 2016
GPGPU-Sim uArch: cycles simulated: 8500  inst.: 573664 (ipc=67.5) sim_rate=52151 (inst/sec) elapsed = 0:0:00:11 / Sun Feb 28 18:46:48 2016
GPGPU-Sim uArch: cycles simulated: 10000  inst.: 585984 (ipc=58.6) sim_rate=48832 (inst/sec) elapsed = 0:0:00:12 / Sun Feb 28 18:46:49 2016
GPGPU-Sim uArch: cycles simulated: 11000  inst.: 595712 (ipc=54.2) sim_rate=45824 (inst/sec) elapsed = 0:0:00:13 / Sun Feb 28 18:46:50 2016
GPGPU-Sim uArch: cycles simulated: 12000  inst.: 603680 (ipc=50.3) sim_rate=43120 (inst/sec) elapsed = 0:0:00:14 / Sun Feb 28 18:46:51 2016
GPGPU-Sim uArch: cycles simulated: 13500  inst.: 617888 (ipc=45.8) sim_rate=41192 (inst/sec) elapsed = 0:0:00:15 / Sun Feb 28 18:46:52 2016
GPGPU-Sim uArch: cycles simulated: 14500  inst.: 625760 (ipc=43.2) sim_rate=39110 (inst/sec) elapsed = 0:0:00:16 / Sun Feb 28 18:46:53 2016
GPGPU-Sim uArch: cycles simulated: 15500  inst.: 633664 (ipc=40.9) sim_rate=37274 (inst/sec) elapsed = 0:0:00:17 / Sun Feb 28 18:46:54 2016
GPGPU-Sim uArch: cycles simulated: 17000  inst.: 647616 (ipc=38.1) sim_rate=35978 (inst/sec) elapsed = 0:0:00:18 / Sun Feb 28 18:46:55 2016
GPGPU-Sim PTX: 700000 instructions simulated : ctaid=(13,0,0) tid=(95,0,0)
GPGPU-Sim uArch: cycles simulated: 18500  inst.: 661536 (ipc=35.8) sim_rate=34817 (inst/sec) elapsed = 0:0:00:19 / Sun Feb 28 18:46:56 2016
GPGPU-Sim uArch: cycles simulated: 20000  inst.: 674624 (ipc=33.7) sim_rate=33731 (inst/sec) elapsed = 0:0:00:20 / Sun Feb 28 18:46:57 2016
GPGPU-Sim uArch: cycles simulated: 21000  inst.: 683488 (ipc=32.5) sim_rate=32547 (inst/sec) elapsed = 0:0:00:21 / Sun Feb 28 18:46:58 2016
GPGPU-Sim uArch: cycles simulated: 22500  inst.: 697760 (ipc=31.0) sim_rate=31716 (inst/sec) elapsed = 0:0:00:22 / Sun Feb 28 18:46:59 2016
GPGPU-Sim uArch: cycles simulated: 24000  inst.: 712608 (ipc=29.7) sim_rate=30982 (inst/sec) elapsed = 0:0:00:23 / Sun Feb 28 18:47:00 2016
GPGPU-Sim uArch: cycles simulated: 25000  inst.: 721952 (ipc=28.9) sim_rate=30081 (inst/sec) elapsed = 0:0:00:24 / Sun Feb 28 18:47:01 2016
GPGPU-Sim uArch: cycles simulated: 26000  inst.: 730784 (ipc=28.1) sim_rate=29231 (inst/sec) elapsed = 0:0:00:25 / Sun Feb 28 18:47:02 2016
GPGPU-Sim uArch: cycles simulated: 27000  inst.: 739776 (ipc=27.4) sim_rate=28452 (inst/sec) elapsed = 0:0:00:26 / Sun Feb 28 18:47:03 2016
GPGPU-Sim uArch: cycles simulated: 28000  inst.: 749152 (ipc=26.8) sim_rate=27746 (inst/sec) elapsed = 0:0:00:27 / Sun Feb 28 18:47:04 2016
GPGPU-Sim PTX: 800000 instructions simulated : ctaid=(4,0,0) tid=(31,0,0)
GPGPU-Sim uArch: cycles simulated: 29000  inst.: 758240 (ipc=26.1) sim_rate=27080 (inst/sec) elapsed = 0:0:00:28 / Sun Feb 28 18:47:05 2016
GPGPU-Sim uArch: cycles simulated: 30000  inst.: 766912 (ipc=25.6) sim_rate=26445 (inst/sec) elapsed = 0:0:00:29 / Sun Feb 28 18:47:06 2016
GPGPU-Sim uArch: cycles simulated: 31000  inst.: 777280 (ipc=25.1) sim_rate=25909 (inst/sec) elapsed = 0:0:00:30 / Sun Feb 28 18:47:07 2016
GPGPU-Sim uArch: cycles simulated: 32000  inst.: 785632 (ipc=24.6) sim_rate=25342 (inst/sec) elapsed = 0:0:00:31 / Sun Feb 28 18:47:08 2016
GPGPU-Sim uArch: cycles simulated: 33000  inst.: 793664 (ipc=24.1) sim_rate=24802 (inst/sec) elapsed = 0:0:00:32 / Sun Feb 28 18:47:09 2016
GPGPU-Sim uArch: cycles simulated: 34000  inst.: 803648 (ipc=23.6) sim_rate=24352 (inst/sec) elapsed = 0:0:00:33 / Sun Feb 28 18:47:10 2016
GPGPU-Sim uArch: cycles simulated: 35000  inst.: 812448 (ipc=23.2) sim_rate=23895 (inst/sec) elapsed = 0:0:00:34 / Sun Feb 28 18:47:11 2016
GPGPU-Sim uArch: cycles simulated: 36000  inst.: 820512 (ipc=22.8) sim_rate=23443 (inst/sec) elapsed = 0:0:00:35 / Sun Feb 28 18:47:12 2016
GPGPU-Sim uArch: cycles simulated: 37000  inst.: 830560 (ipc=22.4) sim_rate=23071 (inst/sec) elapsed = 0:0:00:36 / Sun Feb 28 18:47:13 2016
GPGPU-Sim uArch: cycles simulated: 38000  inst.: 840224 (ipc=22.1) sim_rate=22708 (inst/sec) elapsed = 0:0:00:37 / Sun Feb 28 18:47:14 2016
GPGPU-Sim uArch: cycles simulated: 39000  inst.: 848064 (ipc=21.7) sim_rate=22317 (inst/sec) elapsed = 0:0:00:38 / Sun Feb 28 18:47:15 2016
GPGPU-Sim PTX: 900000 instructions simulated : ctaid=(2,0,0) tid=(31,0,0)
GPGPU-Sim uArch: cycles simulated: 40000  inst.: 855520 (ipc=21.4) sim_rate=21936 (inst/sec) elapsed = 0:0:00:39 / Sun Feb 28 18:47:16 2016
GPGPU-Sim uArch: cycles simulated: 41000  inst.: 866432 (ipc=21.1) sim_rate=21660 (inst/sec) elapsed = 0:0:00:40 / Sun Feb 28 18:47:17 2016
GPGPU-Sim uArch: cycles simulated: 42000  inst.: 874976 (ipc=20.8) sim_rate=21340 (inst/sec) elapsed = 0:0:00:41 / Sun Feb 28 18:47:18 2016
GPGPU-Sim uArch: cycles simulated: 43000  inst.: 885728 (ipc=20.6) sim_rate=21088 (inst/sec) elapsed = 0:0:00:42 / Sun Feb 28 18:47:19 2016
GPGPU-Sim uArch: cycles simulated: 44000  inst.: 894208 (ipc=20.3) sim_rate=20795 (inst/sec) elapsed = 0:0:00:43 / Sun Feb 28 18:47:20 2016
GPGPU-Sim uArch: cycles simulated: 45000  inst.: 903584 (ipc=20.1) sim_rate=20536 (inst/sec) elapsed = 0:0:00:44 / Sun Feb 28 18:47:21 2016
GPGPU-Sim uArch: cycles simulated: 46000  inst.: 911552 (ipc=19.8) sim_rate=20256 (inst/sec) elapsed = 0:0:00:45 / Sun Feb 28 18:47:22 2016
GPGPU-Sim uArch: cycles simulated: 47000  inst.: 921216 (ipc=19.6) sim_rate=20026 (inst/sec) elapsed = 0:0:00:46 / Sun Feb 28 18:47:23 2016
GPGPU-Sim uArch: cycles simulated: 48000  inst.: 929600 (ipc=19.4) sim_rate=19778 (inst/sec) elapsed = 0:0:00:47 / Sun Feb 28 18:47:24 2016
GPGPU-Sim uArch: cycles simulated: 49500  inst.: 942976 (ipc=19.1) sim_rate=19645 (inst/sec) elapsed = 0:0:00:48 / Sun Feb 28 18:47:25 2016
GPGPU-Sim PTX: 1000000 instructions simulated : ctaid=(6,0,0) tid=(159,0,0)
GPGPU-Sim uArch: cycles simulated: 51000  inst.: 955936 (ipc=18.7) sim_rate=19508 (inst/sec) elapsed = 0:0:00:49 / Sun Feb 28 18:47:26 2016
GPGPU-Sim uArch: cycles simulated: 52000  inst.: 965312 (ipc=18.6) sim_rate=19306 (inst/sec) elapsed = 0:0:00:50 / Sun Feb 28 18:47:27 2016
GPGPU-Sim uArch: cycles simulated: 53500  inst.: 978176 (ipc=18.3) sim_rate=19179 (inst/sec) elapsed = 0:0:00:51 / Sun Feb 28 18:47:28 2016
GPGPU-Sim uArch: cycles simulated: 55000  inst.: 991264 (ipc=18.0) sim_rate=19062 (inst/sec) elapsed = 0:0:00:52 / Sun Feb 28 18:47:29 2016
GPGPU-Sim uArch: cycles simulated: 56000  inst.: 1000160 (ipc=17.9) sim_rate=18870 (inst/sec) elapsed = 0:0:00:53 / Sun Feb 28 18:47:30 2016
GPGPU-Sim uArch: cycles simulated: 57500  inst.: 1014176 (ipc=17.6) sim_rate=18781 (inst/sec) elapsed = 0:0:00:54 / Sun Feb 28 18:47:31 2016
GPGPU-Sim uArch: cycles simulated: 58500  inst.: 1025152 (ipc=17.5) sim_rate=18639 (inst/sec) elapsed = 0:0:00:55 / Sun Feb 28 18:47:32 2016
GPGPU-Sim uArch: cycles simulated: 59500  inst.: 1032832 (ipc=17.4) sim_rate=18443 (inst/sec) elapsed = 0:0:00:56 / Sun Feb 28 18:47:33 2016
GPGPU-Sim uArch: cycles simulated: 60500  inst.: 1042976 (ipc=17.2) sim_rate=18297 (inst/sec) elapsed = 0:0:00:57 / Sun Feb 28 18:47:34 2016
GPGPU-Sim PTX: 1100000 instructions simulated : ctaid=(9,0,0) tid=(31,0,0)
GPGPU-Sim uArch: cycles simulated: 61500  inst.: 1051744 (ipc=17.1) sim_rate=18133 (inst/sec) elapsed = 0:0:00:58 / Sun Feb 28 18:47:35 2016
GPGPU-Sim uArch: cycles simulated: 62500  inst.: 1060608 (ipc=17.0) sim_rate=17976 (inst/sec) elapsed = 0:0:00:59 / Sun Feb 28 18:47:36 2016
GPGPU-Sim uArch: cycles simulated: 64000  inst.: 1076000 (ipc=16.8) sim_rate=17933 (inst/sec) elapsed = 0:0:01:00 / Sun Feb 28 18:47:37 2016
GPGPU-Sim uArch: cycles simulated: 65000  inst.: 1085632 (ipc=16.7) sim_rate=17797 (inst/sec) elapsed = 0:0:01:01 / Sun Feb 28 18:47:38 2016
GPGPU-Sim uArch: cycles simulated: 66000  inst.: 1093280 (ipc=16.6) sim_rate=17633 (inst/sec) elapsed = 0:0:01:02 / Sun Feb 28 18:47:39 2016
GPGPU-Sim uArch: cycles simulated: 67000  inst.: 1101920 (ipc=16.4) sim_rate=17490 (inst/sec) elapsed = 0:0:01:03 / Sun Feb 28 18:47:40 2016
GPGPU-Sim uArch: cycles simulated: 68000  inst.: 1111360 (ipc=16.3) sim_rate=17365 (inst/sec) elapsed = 0:0:01:04 / Sun Feb 28 18:47:41 2016
GPGPU-Sim uArch: cycles simulated: 68500  inst.: 1116096 (ipc=16.3) sim_rate=17170 (inst/sec) elapsed = 0:0:01:05 / Sun Feb 28 18:47:42 2016
GPGPU-Sim uArch: cycles simulated: 69500  inst.: 1124224 (ipc=16.2) sim_rate=17033 (inst/sec) elapsed = 0:0:01:06 / Sun Feb 28 18:47:43 2016
GPGPU-Sim uArch: cycles simulated: 70500  inst.: 1134016 (ipc=16.1) sim_rate=16925 (inst/sec) elapsed = 0:0:01:07 / Sun Feb 28 18:47:44 2016
GPGPU-Sim uArch: cycles simulated: 72000  inst.: 1147968 (ipc=15.9) sim_rate=16881 (inst/sec) elapsed = 0:0:01:08 / Sun Feb 28 18:47:45 2016
GPGPU-Sim PTX: 1200000 instructions simulated : ctaid=(8,0,0) tid=(223,0,0)
GPGPU-Sim uArch: cycles simulated: 73000  inst.: 1156672 (ipc=15.8) sim_rate=16763 (inst/sec) elapsed = 0:0:01:09 / Sun Feb 28 18:47:46 2016
GPGPU-Sim uArch: cycles simulated: 74000  inst.: 1166400 (ipc=15.8) sim_rate=16662 (inst/sec) elapsed = 0:0:01:10 / Sun Feb 28 18:47:47 2016
GPGPU-Sim uArch: cycles simulated: 75000  inst.: 1174944 (ipc=15.7) sim_rate=16548 (inst/sec) elapsed = 0:0:01:11 / Sun Feb 28 18:47:48 2016
GPGPU-Sim uArch: cycles simulated: 76000  inst.: 1183776 (ipc=15.6) sim_rate=16441 (inst/sec) elapsed = 0:0:01:12 / Sun Feb 28 18:47:49 2016
GPGPU-Sim uArch: cycles simulated: 77000  inst.: 1193024 (ipc=15.5) sim_rate=16342 (inst/sec) elapsed = 0:0:01:13 / Sun Feb 28 18:47:50 2016
GPGPU-Sim uArch: cycles simulated: 78000  inst.: 1204096 (ipc=15.4) sim_rate=16271 (inst/sec) elapsed = 0:0:01:14 / Sun Feb 28 18:47:51 2016
GPGPU-Sim uArch: cycles simulated: 79000  inst.: 1214080 (ipc=15.4) sim_rate=16187 (inst/sec) elapsed = 0:0:01:15 / Sun Feb 28 18:47:52 2016
GPGPU-Sim uArch: cycles simulated: 80000  inst.: 1222656 (ipc=15.3) sim_rate=16087 (inst/sec) elapsed = 0:0:01:16 / Sun Feb 28 18:47:53 2016
GPGPU-Sim uArch: cycles simulated: 81000  inst.: 1232800 (ipc=15.2) sim_rate=16010 (inst/sec) elapsed = 0:0:01:17 / Sun Feb 28 18:47:54 2016
GPGPU-Sim uArch: cycles simulated: 82000  inst.: 1241856 (ipc=15.1) sim_rate=15921 (inst/sec) elapsed = 0:0:01:18 / Sun Feb 28 18:47:55 2016
GPGPU-Sim PTX: 1300000 instructions simulated : ctaid=(20,0,0) tid=(31,0,0)
GPGPU-Sim uArch: cycles simulated: 83000  inst.: 1251392 (ipc=15.1) sim_rate=15840 (inst/sec) elapsed = 0:0:01:19 / Sun Feb 28 18:47:56 2016
GPGPU-Sim uArch: cycles simulated: 84000  inst.: 1260960 (ipc=15.0) sim_rate=15762 (inst/sec) elapsed = 0:0:01:20 / Sun Feb 28 18:47:57 2016
GPGPU-Sim uArch: cycles simulated: 85000  inst.: 1270656 (ipc=14.9) sim_rate=15687 (inst/sec) elapsed = 0:0:01:21 / Sun Feb 28 18:47:58 2016
GPGPU-Sim uArch: cycles simulated: 86000  inst.: 1278272 (ipc=14.9) sim_rate=15588 (inst/sec) elapsed = 0:0:01:22 / Sun Feb 28 18:47:59 2016
GPGPU-Sim uArch: cycles simulated: 87500  inst.: 1292608 (ipc=14.8) sim_rate=15573 (inst/sec) elapsed = 0:0:01:23 / Sun Feb 28 18:48:00 2016
GPGPU-Sim uArch: cycles simulated: 88500  inst.: 1301024 (ipc=14.7) sim_rate=15488 (inst/sec) elapsed = 0:0:01:24 / Sun Feb 28 18:48:01 2016
GPGPU-Sim uArch: cycles simulated: 90000  inst.: 1315680 (ipc=14.6) sim_rate=15478 (inst/sec) elapsed = 0:0:01:25 / Sun Feb 28 18:48:02 2016
GPGPU-Sim uArch: cycles simulated: 91500  inst.: 1329376 (ipc=14.5) sim_rate=15457 (inst/sec) elapsed = 0:0:01:26 / Sun Feb 28 18:48:03 2016
GPGPU-Sim uArch: cycles simulated: 92500  inst.: 1337504 (ipc=14.5) sim_rate=15373 (inst/sec) elapsed = 0:0:01:27 / Sun Feb 28 18:48:04 2016
GPGPU-Sim PTX: 1400000 instructions simulated : ctaid=(24,0,0) tid=(31,0,0)
GPGPU-Sim uArch: cycles simulated: 94000  inst.: 1350336 (ipc=14.4) sim_rate=15344 (inst/sec) elapsed = 0:0:01:28 / Sun Feb 28 18:48:05 2016
GPGPU-Sim uArch: cycles simulated: 95500  inst.: 1364160 (ipc=14.3) sim_rate=15327 (inst/sec) elapsed = 0:0:01:29 / Sun Feb 28 18:48:06 2016
GPGPU-Sim uArch: cycles simulated: 97000  inst.: 1377600 (ipc=14.2) sim_rate=15306 (inst/sec) elapsed = 0:0:01:30 / Sun Feb 28 18:48:07 2016
GPGPU-Sim uArch: cycles simulated: 98500  inst.: 1390400 (ipc=14.1) sim_rate=15279 (inst/sec) elapsed = 0:0:01:31 / Sun Feb 28 18:48:08 2016
GPGPU-Sim uArch: cycles simulated: 99500  inst.: 1398368 (ipc=14.1) sim_rate=15199 (inst/sec) elapsed = 0:0:01:32 / Sun Feb 28 18:48:09 2016
GPGPU-Sim uArch: cycles simulated: 100500  inst.: 1406272 (ipc=14.0) sim_rate=15121 (inst/sec) elapsed = 0:0:01:33 / Sun Feb 28 18:48:10 2016
GPGPU-Sim uArch: cycles simulated: 101500  inst.: 1415456 (ipc=13.9) sim_rate=15058 (inst/sec) elapsed = 0:0:01:34 / Sun Feb 28 18:48:11 2016
GPGPU-Sim uArch: cycles simulated: 102500  inst.: 1425984 (ipc=13.9) sim_rate=15010 (inst/sec) elapsed = 0:0:01:35 / Sun Feb 28 18:48:12 2016
GPGPU-Sim uArch: cycles simulated: 103500  inst.: 1436480 (ipc=13.9) sim_rate=14963 (inst/sec) elapsed = 0:0:01:36 / Sun Feb 28 18:48:13 2016
GPGPU-Sim uArch: cycles simulated: 104500  inst.: 1444864 (ipc=13.8) sim_rate=14895 (inst/sec) elapsed = 0:0:01:37 / Sun Feb 28 18:48:14 2016
GPGPU-Sim PTX: 1500000 instructions simulated : ctaid=(27,0,0) tid=(159,0,0)
GPGPU-Sim uArch: cycles simulated: 105500  inst.: 1454016 (ipc=13.8) sim_rate=14836 (inst/sec) elapsed = 0:0:01:38 / Sun Feb 28 18:48:15 2016
GPGPU-Sim uArch: cycles simulated: 106500  inst.: 1462400 (ipc=13.7) sim_rate=14771 (inst/sec) elapsed = 0:0:01:39 / Sun Feb 28 18:48:16 2016
GPGPU-Sim uArch: cycles simulated: 107500  inst.: 1472096 (ipc=13.7) sim_rate=14720 (inst/sec) elapsed = 0:0:01:40 / Sun Feb 28 18:48:17 2016
GPGPU-Sim uArch: cycles simulated: 108500  inst.: 1480800 (ipc=13.6) sim_rate=14661 (inst/sec) elapsed = 0:0:01:41 / Sun Feb 28 18:48:18 2016
GPGPU-Sim uArch: cycles simulated: 109500  inst.: 1489056 (ipc=13.6) sim_rate=14598 (inst/sec) elapsed = 0:0:01:42 / Sun Feb 28 18:48:19 2016
GPGPU-Sim uArch: cycles simulated: 110500  inst.: 1496032 (ipc=13.5) sim_rate=14524 (inst/sec) elapsed = 0:0:01:43 / Sun Feb 28 18:48:20 2016
GPGPU-Sim uArch: cycles simulated: 112000  inst.: 1511104 (ipc=13.5) sim_rate=14529 (inst/sec) elapsed = 0:0:01:44 / Sun Feb 28 18:48:21 2016
GPGPU-Sim uArch: cycles simulated: 113000  inst.: 1520096 (ipc=13.5) sim_rate=14477 (inst/sec) elapsed = 0:0:01:45 / Sun Feb 28 18:48:22 2016
GPGPU-Sim uArch: cycles simulated: 113500  inst.: 1524672 (ipc=13.4) sim_rate=14383 (inst/sec) elapsed = 0:0:01:46 / Sun Feb 28 18:48:23 2016
GPGPU-Sim uArch: cycles simulated: 114500  inst.: 1535008 (ipc=13.4) sim_rate=14345 (inst/sec) elapsed = 0:0:01:47 / Sun Feb 28 18:48:24 2016
GPGPU-Sim uArch: cycles simulated: 115500  inst.: 1543712 (ipc=13.4) sim_rate=14293 (inst/sec) elapsed = 0:0:01:48 / Sun Feb 28 18:48:25 2016
GPGPU-Sim PTX: 1600000 instructions simulated : ctaid=(27,0,0) tid=(159,0,0)
GPGPU-Sim uArch: cycles simulated: 116500  inst.: 1553088 (ipc=13.3) sim_rate=14248 (inst/sec) elapsed = 0:0:01:49 / Sun Feb 28 18:48:26 2016
GPGPU-Sim uArch: cycles simulated: 117500  inst.: 1562240 (ipc=13.3) sim_rate=14202 (inst/sec) elapsed = 0:0:01:50 / Sun Feb 28 18:48:27 2016
GPGPU-Sim uArch: cycles simulated: 118500  inst.: 1570400 (ipc=13.3) sim_rate=14147 (inst/sec) elapsed = 0:0:01:51 / Sun Feb 28 18:48:28 2016
GPGPU-Sim uArch: cycles simulated: 119500  inst.: 1578784 (ipc=13.2) sim_rate=14096 (inst/sec) elapsed = 0:0:01:52 / Sun Feb 28 18:48:29 2016
GPGPU-Sim uArch: cycles simulated: 120500  inst.: 1589216 (ipc=13.2) sim_rate=14063 (inst/sec) elapsed = 0:0:01:53 / Sun Feb 28 18:48:30 2016
GPGPU-Sim uArch: cycles simulated: 122000  inst.: 1601760 (ipc=13.1) sim_rate=14050 (inst/sec) elapsed = 0:0:01:54 / Sun Feb 28 18:48:31 2016
GPGPU-Sim uArch: cycles simulated: 123000  inst.: 1613024 (ipc=13.1) sim_rate=14026 (inst/sec) elapsed = 0:0:01:55 / Sun Feb 28 18:48:32 2016
GPGPU-Sim uArch: cycles simulated: 124000  inst.: 1620960 (ipc=13.1) sim_rate=13973 (inst/sec) elapsed = 0:0:01:56 / Sun Feb 28 18:48:33 2016
GPGPU-Sim uArch: cycles simulated: 125000  inst.: 1631104 (ipc=13.0) sim_rate=13941 (inst/sec) elapsed = 0:0:01:57 / Sun Feb 28 18:48:34 2016
GPGPU-Sim uArch: cycles simulated: 126000  inst.: 1639648 (ipc=13.0) sim_rate=13895 (inst/sec) elapsed = 0:0:01:58 / Sun Feb 28 18:48:35 2016
GPGPU-Sim PTX: 1700000 instructions simulated : ctaid=(32,0,0) tid=(223,0,0)
GPGPU-Sim uArch: cycles simulated: 127000  inst.: 1648096 (ipc=13.0) sim_rate=13849 (inst/sec) elapsed = 0:0:01:59 / Sun Feb 28 18:48:36 2016
GPGPU-Sim uArch: cycles simulated: 128000  inst.: 1657344 (ipc=12.9) sim_rate=13811 (inst/sec) elapsed = 0:0:02:00 / Sun Feb 28 18:48:37 2016
GPGPU-Sim uArch: cycles simulated: 129000  inst.: 1667200 (ipc=12.9) sim_rate=13778 (inst/sec) elapsed = 0:0:02:01 / Sun Feb 28 18:48:38 2016
GPGPU-Sim uArch: cycles simulated: 130000  inst.: 1675744 (ipc=12.9) sim_rate=13735 (inst/sec) elapsed = 0:0:02:02 / Sun Feb 28 18:48:39 2016
GPGPU-Sim uArch: cycles simulated: 131000  inst.: 1684064 (ipc=12.9) sim_rate=13691 (inst/sec) elapsed = 0:0:02:03 / Sun Feb 28 18:48:40 2016
GPGPU-Sim uArch: cycles simulated: 132000  inst.: 1694272 (ipc=12.8) sim_rate=13663 (inst/sec) elapsed = 0:0:02:04 / Sun Feb 28 18:48:41 2016
GPGPU-Sim uArch: cycles simulated: 133000  inst.: 1702912 (ipc=12.8) sim_rate=13623 (inst/sec) elapsed = 0:0:02:05 / Sun Feb 28 18:48:42 2016
GPGPU-Sim uArch: cycles simulated: 134000  inst.: 1711104 (ipc=12.8) sim_rate=13580 (inst/sec) elapsed = 0:0:02:06 / Sun Feb 28 18:48:43 2016
GPGPU-Sim uArch: cycles simulated: 135000  inst.: 1720288 (ipc=12.7) sim_rate=13545 (inst/sec) elapsed = 0:0:02:07 / Sun Feb 28 18:48:44 2016
GPGPU-Sim uArch: cycles simulated: 136000  inst.: 1729504 (ipc=12.7) sim_rate=13511 (inst/sec) elapsed = 0:0:02:08 / Sun Feb 28 18:48:45 2016
GPGPU-Sim uArch: cycles simulated: 137000  inst.: 1738912 (ipc=12.7) sim_rate=13479 (inst/sec) elapsed = 0:0:02:09 / Sun Feb 28 18:48:46 2016
GPGPU-Sim uArch: cycles simulated: 138000  inst.: 1748032 (ipc=12.7) sim_rate=13446 (inst/sec) elapsed = 0:0:02:10 / Sun Feb 28 18:48:47 2016
GPGPU-Sim PTX: 1800000 instructions simulated : ctaid=(44,0,0) tid=(159,0,0)
GPGPU-Sim uArch: cycles simulated: 139000  inst.: 1757376 (ipc=12.6) sim_rate=13415 (inst/sec) elapsed = 0:0:02:11 / Sun Feb 28 18:48:48 2016
GPGPU-Sim uArch: cycles simulated: 140000  inst.: 1766432 (ipc=12.6) sim_rate=13382 (inst/sec) elapsed = 0:0:02:12 / Sun Feb 28 18:48:49 2016
GPGPU-Sim uArch: cycles simulated: 141000  inst.: 1776096 (ipc=12.6) sim_rate=13354 (inst/sec) elapsed = 0:0:02:13 / Sun Feb 28 18:48:50 2016
GPGPU-Sim uArch: cycles simulated: 142000  inst.: 1785920 (ipc=12.6) sim_rate=13327 (inst/sec) elapsed = 0:0:02:14 / Sun Feb 28 18:48:51 2016
GPGPU-Sim uArch: cycles simulated: 143000  inst.: 1795296 (ipc=12.6) sim_rate=13298 (inst/sec) elapsed = 0:0:02:15 / Sun Feb 28 18:48:52 2016
GPGPU-Sim uArch: cycles simulated: 144000  inst.: 1803776 (ipc=12.5) sim_rate=13263 (inst/sec) elapsed = 0:0:02:16 / Sun Feb 28 18:48:53 2016
GPGPU-Sim uArch: cycles simulated: 145000  inst.: 1812960 (ipc=12.5) sim_rate=13233 (inst/sec) elapsed = 0:0:02:17 / Sun Feb 28 18:48:54 2016
GPGPU-Sim uArch: cycles simulated: 146000  inst.: 1822272 (ipc=12.5) sim_rate=13204 (inst/sec) elapsed = 0:0:02:18 / Sun Feb 28 18:48:55 2016
GPGPU-Sim uArch: cycles simulated: 147000  inst.: 1830944 (ipc=12.5) sim_rate=13172 (inst/sec) elapsed = 0:0:02:19 / Sun Feb 28 18:48:56 2016
GPGPU-Sim uArch: cycles simulated: 148000  inst.: 1840000 (ipc=12.4) sim_rate=13142 (inst/sec) elapsed = 0:0:02:20 / Sun Feb 28 18:48:57 2016
GPGPU-Sim PTX: 1900000 instructions simulated : ctaid=(35,0,0) tid=(95,0,0)
GPGPU-Sim uArch: cycles simulated: 149000  inst.: 1849696 (ipc=12.4) sim_rate=13118 (inst/sec) elapsed = 0:0:02:21 / Sun Feb 28 18:48:58 2016
GPGPU-Sim uArch: cycles simulated: 150000  inst.: 1858688 (ipc=12.4) sim_rate=13089 (inst/sec) elapsed = 0:0:02:22 / Sun Feb 28 18:48:59 2016
GPGPU-Sim uArch: cycles simulated: 151500  inst.: 1870816 (ipc=12.3) sim_rate=13082 (inst/sec) elapsed = 0:0:02:23 / Sun Feb 28 18:49:00 2016
GPGPU-Sim uArch: cycles simulated: 152500  inst.: 1881344 (ipc=12.3) sim_rate=13064 (inst/sec) elapsed = 0:0:02:24 / Sun Feb 28 18:49:01 2016
GPGPU-Sim uArch: cycles simulated: 153500  inst.: 1890560 (ipc=12.3) sim_rate=13038 (inst/sec) elapsed = 0:0:02:25 / Sun Feb 28 18:49:02 2016
GPGPU-Sim uArch: cycles simulated: 154500  inst.: 1899552 (ipc=12.3) sim_rate=13010 (inst/sec) elapsed = 0:0:02:26 / Sun Feb 28 18:49:03 2016
GPGPU-Sim uArch: cycles simulated: 155500  inst.: 1907360 (ipc=12.3) sim_rate=12975 (inst/sec) elapsed = 0:0:02:27 / Sun Feb 28 18:49:04 2016
GPGPU-Sim uArch: cycles simulated: 156500  inst.: 1916512 (ipc=12.2) sim_rate=12949 (inst/sec) elapsed = 0:0:02:28 / Sun Feb 28 18:49:05 2016
GPGPU-Sim uArch: cycles simulated: 157500  inst.: 1925440 (ipc=12.2) sim_rate=12922 (inst/sec) elapsed = 0:0:02:29 / Sun Feb 28 18:49:06 2016
GPGPU-Sim uArch: cycles simulated: 158500  inst.: 1935264 (ipc=12.2) sim_rate=12901 (inst/sec) elapsed = 0:0:02:30 / Sun Feb 28 18:49:07 2016
GPGPU-Sim uArch: cycles simulated: 159500  inst.: 1944000 (ipc=12.2) sim_rate=12874 (inst/sec) elapsed = 0:0:02:31 / Sun Feb 28 18:49:08 2016
GPGPU-Sim PTX: 2000000 instructions simulated : ctaid=(43,0,0) tid=(159,0,0)
GPGPU-Sim uArch: cycles simulated: 160500  inst.: 1952288 (ipc=12.2) sim_rate=12844 (inst/sec) elapsed = 0:0:02:32 / Sun Feb 28 18:49:09 2016
GPGPU-Sim uArch: cycles simulated: 161500  inst.: 1963072 (ipc=12.2) sim_rate=12830 (inst/sec) elapsed = 0:0:02:33 / Sun Feb 28 18:49:10 2016
GPGPU-Sim uArch: cycles simulated: 162500  inst.: 1971392 (ipc=12.1) sim_rate=12801 (inst/sec) elapsed = 0:0:02:34 / Sun Feb 28 18:49:11 2016
GPGPU-Sim uArch: cycles simulated: 164000  inst.: 1985824 (ipc=12.1) sim_rate=12811 (inst/sec) elapsed = 0:0:02:35 / Sun Feb 28 18:49:12 2016
GPGPU-Sim uArch: cycles simulated: 165000  inst.: 1995072 (ipc=12.1) sim_rate=12788 (inst/sec) elapsed = 0:0:02:36 / Sun Feb 28 18:49:13 2016
GPGPU-Sim uArch: cycles simulated: 166000  inst.: 2004928 (ipc=12.1) sim_rate=12770 (inst/sec) elapsed = 0:0:02:37 / Sun Feb 28 18:49:14 2016
GPGPU-Sim uArch: cycles simulated: 167000  inst.: 2015104 (ipc=12.1) sim_rate=12753 (inst/sec) elapsed = 0:0:02:38 / Sun Feb 28 18:49:15 2016
GPGPU-Sim uArch: cycles simulated: 168000  inst.: 2024512 (ipc=12.1) sim_rate=12732 (inst/sec) elapsed = 0:0:02:39 / Sun Feb 28 18:49:16 2016
GPGPU-Sim uArch: cycles simulated: 169000  inst.: 2033952 (ipc=12.0) sim_rate=12712 (inst/sec) elapsed = 0:0:02:40 / Sun Feb 28 18:49:17 2016
GPGPU-Sim PTX: 2100000 instructions simulated : ctaid=(43,0,0) tid=(223,0,0)
GPGPU-Sim uArch: cycles simulated: 170500  inst.: 2047712 (ipc=12.0) sim_rate=12718 (inst/sec) elapsed = 0:0:02:41 / Sun Feb 28 18:49:18 2016
GPGPU-Sim uArch: cycles simulated: 171500  inst.: 2057760 (ipc=12.0) sim_rate=12702 (inst/sec) elapsed = 0:0:02:42 / Sun Feb 28 18:49:19 2016
GPGPU-Sim uArch: cycles simulated: 172500  inst.: 2068512 (ipc=12.0) sim_rate=12690 (inst/sec) elapsed = 0:0:02:43 / Sun Feb 28 18:49:20 2016
GPGPU-Sim uArch: cycles simulated: 173500  inst.: 2077984 (ipc=12.0) sim_rate=12670 (inst/sec) elapsed = 0:0:02:44 / Sun Feb 28 18:49:21 2016
GPGPU-Sim uArch: cycles simulated: 175000  inst.: 2090496 (ipc=11.9) sim_rate=12669 (inst/sec) elapsed = 0:0:02:45 / Sun Feb 28 18:49:22 2016
GPGPU-Sim uArch: cycles simulated: 176000  inst.: 2098400 (ipc=11.9) sim_rate=12640 (inst/sec) elapsed = 0:0:02:46 / Sun Feb 28 18:49:23 2016
GPGPU-Sim uArch: cycles simulated: 177000  inst.: 2107328 (ipc=11.9) sim_rate=12618 (inst/sec) elapsed = 0:0:02:47 / Sun Feb 28 18:49:24 2016
GPGPU-Sim uArch: cycles simulated: 178000  inst.: 2116896 (ipc=11.9) sim_rate=12600 (inst/sec) elapsed = 0:0:02:48 / Sun Feb 28 18:49:25 2016
GPGPU-Sim uArch: cycles simulated: 179000  inst.: 2126816 (ipc=11.9) sim_rate=12584 (inst/sec) elapsed = 0:0:02:49 / Sun Feb 28 18:49:26 2016
GPGPU-Sim uArch: cycles simulated: 180500  inst.: 2139968 (ipc=11.9) sim_rate=12588 (inst/sec) elapsed = 0:0:02:50 / Sun Feb 28 18:49:27 2016
GPGPU-Sim PTX: 2200000 instructions simulated : ctaid=(43,0,0) tid=(223,0,0)
GPGPU-Sim uArch: cycles simulated: 182000  inst.: 2153184 (ipc=11.8) sim_rate=12591 (inst/sec) elapsed = 0:0:02:51 / Sun Feb 28 18:49:28 2016
GPGPU-Sim uArch: cycles simulated: 183500  inst.: 2167712 (ipc=11.8) sim_rate=12602 (inst/sec) elapsed = 0:0:02:52 / Sun Feb 28 18:49:29 2016
GPGPU-Sim uArch: cycles simulated: 185000  inst.: 2181280 (ipc=11.8) sim_rate=12608 (inst/sec) elapsed = 0:0:02:53 / Sun Feb 28 18:49:30 2016
GPGPU-Sim uArch: cycles simulated: 186500  inst.: 2194944 (ipc=11.8) sim_rate=12614 (inst/sec) elapsed = 0:0:02:54 / Sun Feb 28 18:49:31 2016
GPGPU-Sim uArch: cycles simulated: 188000  inst.: 2210496 (ipc=11.8) sim_rate=12631 (inst/sec) elapsed = 0:0:02:55 / Sun Feb 28 18:49:32 2016
GPGPU-Sim uArch: cycles simulated: 189500  inst.: 2224832 (ipc=11.7) sim_rate=12641 (inst/sec) elapsed = 0:0:02:56 / Sun Feb 28 18:49:33 2016
GPGPU-Sim uArch: cycles simulated: 191000  inst.: 2238112 (ipc=11.7) sim_rate=12644 (inst/sec) elapsed = 0:0:02:57 / Sun Feb 28 18:49:34 2016
GPGPU-Sim PTX: 2300000 instructions simulated : ctaid=(48,0,0) tid=(95,0,0)
GPGPU-Sim uArch: cycles simulated: 192500  inst.: 2253824 (ipc=11.7) sim_rate=12661 (inst/sec) elapsed = 0:0:02:58 / Sun Feb 28 18:49:35 2016
GPGPU-Sim uArch: cycles simulated: 194000  inst.: 2266080 (ipc=11.7) sim_rate=12659 (inst/sec) elapsed = 0:0:02:59 / Sun Feb 28 18:49:36 2016
GPGPU-Sim uArch: cycles simulated: 195500  inst.: 2279168 (ipc=11.7) sim_rate=12662 (inst/sec) elapsed = 0:0:03:00 / Sun Feb 28 18:49:37 2016
GPGPU-Sim uArch: cycles simulated: 197000  inst.: 2294144 (ipc=11.6) sim_rate=12674 (inst/sec) elapsed = 0:0:03:01 / Sun Feb 28 18:49:38 2016
GPGPU-Sim uArch: cycles simulated: 198500  inst.: 2307360 (ipc=11.6) sim_rate=12677 (inst/sec) elapsed = 0:0:03:02 / Sun Feb 28 18:49:39 2016
GPGPU-Sim uArch: cycles simulated: 200000  inst.: 2320224 (ipc=11.6) sim_rate=12678 (inst/sec) elapsed = 0:0:03:03 / Sun Feb 28 18:49:40 2016
GPGPU-Sim uArch: cycles simulated: 201500  inst.: 2333408 (ipc=11.6) sim_rate=12681 (inst/sec) elapsed = 0:0:03:04 / Sun Feb 28 18:49:41 2016
GPGPU-Sim uArch: cycles simulated: 202500  inst.: 2342560 (ipc=11.6) sim_rate=12662 (inst/sec) elapsed = 0:0:03:05 / Sun Feb 28 18:49:42 2016
GPGPU-Sim PTX: 2400000 instructions simulated : ctaid=(51,0,0) tid=(159,0,0)
GPGPU-Sim uArch: cycles simulated: 204000  inst.: 2355840 (ipc=11.5) sim_rate=12665 (inst/sec) elapsed = 0:0:03:06 / Sun Feb 28 18:49:43 2016
GPGPU-Sim uArch: cycles simulated: 205500  inst.: 2370624 (ipc=11.5) sim_rate=12677 (inst/sec) elapsed = 0:0:03:07 / Sun Feb 28 18:49:44 2016
GPGPU-Sim uArch: cycles simulated: 207000  inst.: 2383936 (ipc=11.5) sim_rate=12680 (inst/sec) elapsed = 0:0:03:08 / Sun Feb 28 18:49:45 2016
GPGPU-Sim uArch: cycles simulated: 208500  inst.: 2398208 (ipc=11.5) sim_rate=12688 (inst/sec) elapsed = 0:0:03:09 / Sun Feb 28 18:49:46 2016
GPGPU-Sim uArch: cycles simulated: 210000  inst.: 2411392 (ipc=11.5) sim_rate=12691 (inst/sec) elapsed = 0:0:03:10 / Sun Feb 28 18:49:47 2016
GPGPU-Sim uArch: cycles simulated: 211500  inst.: 2424768 (ipc=11.5) sim_rate=12695 (inst/sec) elapsed = 0:0:03:11 / Sun Feb 28 18:49:48 2016
GPGPU-Sim uArch: cycles simulated: 213000  inst.: 2439552 (ipc=11.5) sim_rate=12706 (inst/sec) elapsed = 0:0:03:12 / Sun Feb 28 18:49:49 2016
GPGPU-Sim PTX: 2500000 instructions simulated : ctaid=(64,0,0) tid=(95,0,0)
GPGPU-Sim uArch: cycles simulated: 214500  inst.: 2451456 (ipc=11.4) sim_rate=12701 (inst/sec) elapsed = 0:0:03:13 / Sun Feb 28 18:49:50 2016
GPGPU-Sim uArch: cycles simulated: 216000  inst.: 2466144 (ipc=11.4) sim_rate=12712 (inst/sec) elapsed = 0:0:03:14 / Sun Feb 28 18:49:51 2016
GPGPU-Sim uArch: cycles simulated: 217500  inst.: 2479552 (ipc=11.4) sim_rate=12715 (inst/sec) elapsed = 0:0:03:15 / Sun Feb 28 18:49:52 2016
GPGPU-Sim uArch: cycles simulated: 218500  inst.: 2488416 (ipc=11.4) sim_rate=12696 (inst/sec) elapsed = 0:0:03:16 / Sun Feb 28 18:49:53 2016
GPGPU-Sim uArch: cycles simulated: 220000  inst.: 2502848 (ipc=11.4) sim_rate=12704 (inst/sec) elapsed = 0:0:03:17 / Sun Feb 28 18:49:54 2016
GPGPU-Sim uArch: cycles simulated: 221500  inst.: 2516864 (ipc=11.4) sim_rate=12711 (inst/sec) elapsed = 0:0:03:18 / Sun Feb 28 18:49:55 2016
GPGPU-Sim uArch: cycles simulated: 223000  inst.: 2531360 (ipc=11.4) sim_rate=12720 (inst/sec) elapsed = 0:0:03:19 / Sun Feb 28 18:49:56 2016
GPGPU-Sim uArch: cycles simulated: 224500  inst.: 2544384 (ipc=11.3) sim_rate=12721 (inst/sec) elapsed = 0:0:03:20 / Sun Feb 28 18:49:57 2016
GPGPU-Sim PTX: 2600000 instructions simulated : ctaid=(11,0,0) tid=(127,0,0)
GPGPU-Sim uArch: cycles simulated: 226000  inst.: 2559360 (ipc=11.3) sim_rate=12733 (inst/sec) elapsed = 0:0:03:21 / Sun Feb 28 18:49:58 2016
GPGPU-Sim uArch: cycles simulated: 227500  inst.: 2572736 (ipc=11.3) sim_rate=12736 (inst/sec) elapsed = 0:0:03:22 / Sun Feb 28 18:49:59 2016
GPGPU-Sim uArch: cycles simulated: 229000  inst.: 2585504 (ipc=11.3) sim_rate=12736 (inst/sec) elapsed = 0:0:03:23 / Sun Feb 28 18:50:00 2016
GPGPU-Sim uArch: cycles simulated: 230500  inst.: 2600480 (ipc=11.3) sim_rate=12747 (inst/sec) elapsed = 0:0:03:24 / Sun Feb 28 18:50:01 2016
GPGPU-Sim uArch: cycles simulated: 231500  inst.: 2609344 (ipc=11.3) sim_rate=12728 (inst/sec) elapsed = 0:0:03:25 / Sun Feb 28 18:50:02 2016
GPGPU-Sim uArch: cycles simulated: 233000  inst.: 2624704 (ipc=11.3) sim_rate=12741 (inst/sec) elapsed = 0:0:03:26 / Sun Feb 28 18:50:03 2016
GPGPU-Sim uArch: cycles simulated: 234500  inst.: 2636768 (ipc=11.2) sim_rate=12738 (inst/sec) elapsed = 0:0:03:27 / Sun Feb 28 18:50:04 2016
GPGPU-Sim PTX: 2700000 instructions simulated : ctaid=(59,0,0) tid=(159,0,0)
GPGPU-Sim uArch: cycles simulated: 236000  inst.: 2650464 (ipc=11.2) sim_rate=12742 (inst/sec) elapsed = 0:0:03:28 / Sun Feb 28 18:50:05 2016
GPGPU-Sim uArch: cycles simulated: 237500  inst.: 2665344 (ipc=11.2) sim_rate=12752 (inst/sec) elapsed = 0:0:03:29 / Sun Feb 28 18:50:06 2016
GPGPU-Sim uArch: cycles simulated: 239000  inst.: 2680256 (ipc=11.2) sim_rate=12763 (inst/sec) elapsed = 0:0:03:30 / Sun Feb 28 18:50:07 2016
GPGPU-Sim uArch: cycles simulated: 240500  inst.: 2694560 (ipc=11.2) sim_rate=12770 (inst/sec) elapsed = 0:0:03:31 / Sun Feb 28 18:50:08 2016
GPGPU-Sim uArch: cycles simulated: 242000  inst.: 2707616 (ipc=11.2) sim_rate=12771 (inst/sec) elapsed = 0:0:03:32 / Sun Feb 28 18:50:09 2016
GPGPU-Sim uArch: cycles simulated: 243500  inst.: 2722784 (ipc=11.2) sim_rate=12783 (inst/sec) elapsed = 0:0:03:33 / Sun Feb 28 18:50:10 2016
GPGPU-Sim uArch: cycles simulated: 245000  inst.: 2736192 (ipc=11.2) sim_rate=12785 (inst/sec) elapsed = 0:0:03:34 / Sun Feb 28 18:50:11 2016
GPGPU-Sim PTX: 2800000 instructions simulated : ctaid=(70,0,0) tid=(159,0,0)
GPGPU-Sim uArch: cycles simulated: 246500  inst.: 2753184 (ipc=11.2) sim_rate=12805 (inst/sec) elapsed = 0:0:03:35 / Sun Feb 28 18:50:12 2016
GPGPU-Sim uArch: cycles simulated: 248000  inst.: 2766496 (ipc=11.2) sim_rate=12807 (inst/sec) elapsed = 0:0:03:36 / Sun Feb 28 18:50:13 2016
GPGPU-Sim uArch: cycles simulated: 249500  inst.: 2779712 (ipc=11.1) sim_rate=12809 (inst/sec) elapsed = 0:0:03:37 / Sun Feb 28 18:50:14 2016
GPGPU-Sim uArch: cycles simulated: 251000  inst.: 2794624 (ipc=11.1) sim_rate=12819 (inst/sec) elapsed = 0:0:03:38 / Sun Feb 28 18:50:15 2016
GPGPU-Sim uArch: cycles simulated: 252500  inst.: 2807616 (ipc=11.1) sim_rate=12820 (inst/sec) elapsed = 0:0:03:39 / Sun Feb 28 18:50:16 2016
GPGPU-Sim uArch: cycles simulated: 254000  inst.: 2820768 (ipc=11.1) sim_rate=12821 (inst/sec) elapsed = 0:0:03:40 / Sun Feb 28 18:50:17 2016
GPGPU-Sim uArch: cycles simulated: 255500  inst.: 2836320 (ipc=11.1) sim_rate=12834 (inst/sec) elapsed = 0:0:03:41 / Sun Feb 28 18:50:18 2016
GPGPU-Sim PTX: 2900000 instructions simulated : ctaid=(11,0,0) tid=(255,0,0)
GPGPU-Sim uArch: cycles simulated: 257000  inst.: 2849952 (ipc=11.1) sim_rate=12837 (inst/sec) elapsed = 0:0:03:42 / Sun Feb 28 18:50:19 2016
GPGPU-Sim uArch: cycles simulated: 258500  inst.: 2865984 (ipc=11.1) sim_rate=12851 (inst/sec) elapsed = 0:0:03:43 / Sun Feb 28 18:50:20 2016
GPGPU-Sim uArch: cycles simulated: 260000  inst.: 2878720 (ipc=11.1) sim_rate=12851 (inst/sec) elapsed = 0:0:03:44 / Sun Feb 28 18:50:21 2016
GPGPU-Sim uArch: cycles simulated: 261500  inst.: 2893088 (ipc=11.1) sim_rate=12858 (inst/sec) elapsed = 0:0:03:45 / Sun Feb 28 18:50:22 2016
GPGPU-Sim uArch: cycles simulated: 263000  inst.: 2905984 (ipc=11.0) sim_rate=12858 (inst/sec) elapsed = 0:0:03:46 / Sun Feb 28 18:50:23 2016
GPGPU-Sim uArch: cycles simulated: 264500  inst.: 2920128 (ipc=11.0) sim_rate=12864 (inst/sec) elapsed = 0:0:03:47 / Sun Feb 28 18:50:24 2016
GPGPU-Sim uArch: cycles simulated: 266000  inst.: 2933248 (ipc=11.0) sim_rate=12865 (inst/sec) elapsed = 0:0:03:48 / Sun Feb 28 18:50:25 2016
GPGPU-Sim PTX: 3000000 instructions simulated : ctaid=(84,0,0) tid=(31,0,0)
GPGPU-Sim uArch: cycles simulated: 267500  inst.: 2947552 (ipc=11.0) sim_rate=12871 (inst/sec) elapsed = 0:0:03:49 / Sun Feb 28 18:50:26 2016
GPGPU-Sim uArch: cycles simulated: 269000  inst.: 2961472 (ipc=11.0) sim_rate=12875 (inst/sec) elapsed = 0:0:03:50 / Sun Feb 28 18:50:27 2016
GPGPU-Sim uArch: cycles simulated: 270500  inst.: 2975744 (ipc=11.0) sim_rate=12882 (inst/sec) elapsed = 0:0:03:51 / Sun Feb 28 18:50:28 2016
GPGPU-Sim uArch: cycles simulated: 272000  inst.: 2989632 (ipc=11.0) sim_rate=12886 (inst/sec) elapsed = 0:0:03:52 / Sun Feb 28 18:50:29 2016
GPGPU-Sim uArch: cycles simulated: 273500  inst.: 3003936 (ipc=11.0) sim_rate=12892 (inst/sec) elapsed = 0:0:03:53 / Sun Feb 28 18:50:30 2016
GPGPU-Sim uArch: cycles simulated: 275000  inst.: 3018112 (ipc=11.0) sim_rate=12897 (inst/sec) elapsed = 0:0:03:54 / Sun Feb 28 18:50:31 2016
GPGPU-Sim uArch: cycles simulated: 276500  inst.: 3032416 (ipc=11.0) sim_rate=12903 (inst/sec) elapsed = 0:0:03:55 / Sun Feb 28 18:50:32 2016
GPGPU-Sim PTX: 3100000 instructions simulated : ctaid=(73,0,0) tid=(223,0,0)
GPGPU-Sim uArch: cycles simulated: 278000  inst.: 3046368 (ipc=11.0) sim_rate=12908 (inst/sec) elapsed = 0:0:03:56 / Sun Feb 28 18:50:33 2016
GPGPU-Sim uArch: cycles simulated: 279500  inst.: 3060416 (ipc=10.9) sim_rate=12913 (inst/sec) elapsed = 0:0:03:57 / Sun Feb 28 18:50:34 2016
GPGPU-Sim uArch: cycles simulated: 281000  inst.: 3073824 (ipc=10.9) sim_rate=12915 (inst/sec) elapsed = 0:0:03:58 / Sun Feb 28 18:50:35 2016
GPGPU-Sim uArch: cycles simulated: 282500  inst.: 3087616 (ipc=10.9) sim_rate=12918 (inst/sec) elapsed = 0:0:03:59 / Sun Feb 28 18:50:36 2016
GPGPU-Sim uArch: cycles simulated: 284000  inst.: 3100704 (ipc=10.9) sim_rate=12919 (inst/sec) elapsed = 0:0:04:00 / Sun Feb 28 18:50:37 2016
GPGPU-Sim uArch: cycles simulated: 285500  inst.: 3114368 (ipc=10.9) sim_rate=12922 (inst/sec) elapsed = 0:0:04:01 / Sun Feb 28 18:50:38 2016
GPGPU-Sim uArch: cycles simulated: 287500  inst.: 3132992 (ipc=10.9) sim_rate=12946 (inst/sec) elapsed = 0:0:04:02 / Sun Feb 28 18:50:39 2016
GPGPU-Sim PTX: 3200000 instructions simulated : ctaid=(89,0,0) tid=(159,0,0)
GPGPU-Sim uArch: cycles simulated: 289000  inst.: 3145984 (ipc=10.9) sim_rate=12946 (inst/sec) elapsed = 0:0:04:03 / Sun Feb 28 18:50:40 2016
GPGPU-Sim uArch: cycles simulated: 290500  inst.: 3159200 (ipc=10.9) sim_rate=12947 (inst/sec) elapsed = 0:0:04:04 / Sun Feb 28 18:50:41 2016
GPGPU-Sim uArch: cycles simulated: 292000  inst.: 3171904 (ipc=10.9) sim_rate=12946 (inst/sec) elapsed = 0:0:04:05 / Sun Feb 28 18:50:42 2016
GPGPU-Sim uArch: cycles simulated: 293500  inst.: 3185536 (ipc=10.9) sim_rate=12949 (inst/sec) elapsed = 0:0:04:06 / Sun Feb 28 18:50:43 2016
GPGPU-Sim uArch: cycles simulated: 295000  inst.: 3199808 (ipc=10.8) sim_rate=12954 (inst/sec) elapsed = 0:0:04:07 / Sun Feb 28 18:50:44 2016
GPGPU-Sim uArch: cycles simulated: 296500  inst.: 3212576 (ipc=10.8) sim_rate=12953 (inst/sec) elapsed = 0:0:04:08 / Sun Feb 28 18:50:45 2016
GPGPU-Sim uArch: cycles simulated: 298000  inst.: 3226432 (ipc=10.8) sim_rate=12957 (inst/sec) elapsed = 0:0:04:09 / Sun Feb 28 18:50:46 2016
GPGPU-Sim PTX: 3300000 instructions simulated : ctaid=(87,0,0) tid=(95,0,0)
GPGPU-Sim uArch: cycles simulated: 300000  inst.: 3244320 (ipc=10.8) sim_rate=12977 (inst/sec) elapsed = 0:0:04:10 / Sun Feb 28 18:50:47 2016
GPGPU-Sim uArch: cycles simulated: 301500  inst.: 3258048 (ipc=10.8) sim_rate=12980 (inst/sec) elapsed = 0:0:04:11 / Sun Feb 28 18:50:48 2016
GPGPU-Sim uArch: cycles simulated: 303000  inst.: 3272384 (ipc=10.8) sim_rate=12985 (inst/sec) elapsed = 0:0:04:12 / Sun Feb 28 18:50:49 2016
GPGPU-Sim uArch: cycles simulated: 304500  inst.: 3285824 (ipc=10.8) sim_rate=12987 (inst/sec) elapsed = 0:0:04:13 / Sun Feb 28 18:50:50 2016
GPGPU-Sim uArch: cycles simulated: 306000  inst.: 3300160 (ipc=10.8) sim_rate=12992 (inst/sec) elapsed = 0:0:04:14 / Sun Feb 28 18:50:51 2016
GPGPU-Sim uArch: cycles simulated: 307500  inst.: 3313728 (ipc=10.8) sim_rate=12995 (inst/sec) elapsed = 0:0:04:15 / Sun Feb 28 18:50:52 2016
GPGPU-Sim uArch: cycles simulated: 309000  inst.: 3327616 (ipc=10.8) sim_rate=12998 (inst/sec) elapsed = 0:0:04:16 / Sun Feb 28 18:50:53 2016
GPGPU-Sim uArch: cycles simulated: 310500  inst.: 3341024 (ipc=10.8) sim_rate=13000 (inst/sec) elapsed = 0:0:04:17 / Sun Feb 28 18:50:54 2016
GPGPU-Sim PTX: 3400000 instructions simulated : ctaid=(87,0,0) tid=(95,0,0)
GPGPU-Sim uArch: cycles simulated: 312500  inst.: 3359520 (ipc=10.8) sim_rate=13021 (inst/sec) elapsed = 0:0:04:18 / Sun Feb 28 18:50:55 2016
GPGPU-Sim uArch: cycles simulated: 314000  inst.: 3372192 (ipc=10.7) sim_rate=13020 (inst/sec) elapsed = 0:0:04:19 / Sun Feb 28 18:50:56 2016
GPGPU-Sim uArch: cycles simulated: 315500  inst.: 3384992 (ipc=10.7) sim_rate=13019 (inst/sec) elapsed = 0:0:04:20 / Sun Feb 28 18:50:57 2016
GPGPU-Sim uArch: cycles simulated: 317000  inst.: 3400192 (ipc=10.7) sim_rate=13027 (inst/sec) elapsed = 0:0:04:21 / Sun Feb 28 18:50:58 2016
GPGPU-Sim uArch: cycles simulated: 318500  inst.: 3414304 (ipc=10.7) sim_rate=13031 (inst/sec) elapsed = 0:0:04:22 / Sun Feb 28 18:50:59 2016
GPGPU-Sim uArch: cycles simulated: 320000  inst.: 3429024 (ipc=10.7) sim_rate=13038 (inst/sec) elapsed = 0:0:04:23 / Sun Feb 28 18:51:00 2016
GPGPU-Sim PTX: 3500000 instructions simulated : ctaid=(87,0,0) tid=(31,0,0)
GPGPU-Sim uArch: cycles simulated: 321500  inst.: 3442176 (ipc=10.7) sim_rate=13038 (inst/sec) elapsed = 0:0:04:24 / Sun Feb 28 18:51:01 2016
GPGPU-Sim uArch: cycles simulated: 323000  inst.: 3456544 (ipc=10.7) sim_rate=13043 (inst/sec) elapsed = 0:0:04:25 / Sun Feb 28 18:51:02 2016
GPGPU-Sim uArch: cycles simulated: 325000  inst.: 3474016 (ipc=10.7) sim_rate=13060 (inst/sec) elapsed = 0:0:04:26 / Sun Feb 28 18:51:03 2016
GPGPU-Sim uArch: cycles simulated: 326500  inst.: 3487200 (ipc=10.7) sim_rate=13060 (inst/sec) elapsed = 0:0:04:27 / Sun Feb 28 18:51:04 2016
GPGPU-Sim uArch: cycles simulated: 328000  inst.: 3501728 (ipc=10.7) sim_rate=13066 (inst/sec) elapsed = 0:0:04:28 / Sun Feb 28 18:51:05 2016
GPGPU-Sim uArch: cycles simulated: 329500  inst.: 3515232 (ipc=10.7) sim_rate=13067 (inst/sec) elapsed = 0:0:04:29 / Sun Feb 28 18:51:06 2016
GPGPU-Sim uArch: cycles simulated: 331000  inst.: 3528768 (ipc=10.7) sim_rate=13069 (inst/sec) elapsed = 0:0:04:30 / Sun Feb 28 18:51:07 2016
GPGPU-Sim PTX: 3600000 instructions simulated : ctaid=(81,0,0) tid=(31,0,0)
GPGPU-Sim uArch: cycles simulated: 332500  inst.: 3542720 (ipc=10.7) sim_rate=13072 (inst/sec) elapsed = 0:0:04:31 / Sun Feb 28 18:51:08 2016
GPGPU-Sim uArch: cycles simulated: 334500  inst.: 3559584 (ipc=10.6) sim_rate=13086 (inst/sec) elapsed = 0:0:04:32 / Sun Feb 28 18:51:09 2016
GPGPU-Sim uArch: cycles simulated: 336000  inst.: 3574432 (ipc=10.6) sim_rate=13093 (inst/sec) elapsed = 0:0:04:33 / Sun Feb 28 18:51:10 2016
GPGPU-Sim uArch: cycles simulated: 337500  inst.: 3587520 (ipc=10.6) sim_rate=13093 (inst/sec) elapsed = 0:0:04:34 / Sun Feb 28 18:51:11 2016
GPGPU-Sim uArch: cycles simulated: 339000  inst.: 3602816 (ipc=10.6) sim_rate=13101 (inst/sec) elapsed = 0:0:04:35 / Sun Feb 28 18:51:12 2016
GPGPU-Sim uArch: cycles simulated: 341000  inst.: 3620000 (ipc=10.6) sim_rate=13115 (inst/sec) elapsed = 0:0:04:36 / Sun Feb 28 18:51:13 2016
GPGPU-Sim uArch: cycles simulated: 342500  inst.: 3634272 (ipc=10.6) sim_rate=13120 (inst/sec) elapsed = 0:0:04:37 / Sun Feb 28 18:51:14 2016
GPGPU-Sim PTX: 3700000 instructions simulated : ctaid=(84,0,0) tid=(159,0,0)
GPGPU-Sim uArch: cycles simulated: 344000  inst.: 3648032 (ipc=10.6) sim_rate=13122 (inst/sec) elapsed = 0:0:04:38 / Sun Feb 28 18:51:15 2016
GPGPU-Sim uArch: cycles simulated: 345500  inst.: 3663264 (ipc=10.6) sim_rate=13129 (inst/sec) elapsed = 0:0:04:39 / Sun Feb 28 18:51:16 2016
GPGPU-Sim uArch: cycles simulated: 347000  inst.: 3676928 (ipc=10.6) sim_rate=13131 (inst/sec) elapsed = 0:0:04:40 / Sun Feb 28 18:51:17 2016
GPGPU-Sim uArch: cycles simulated: 349000  inst.: 3696096 (ipc=10.6) sim_rate=13153 (inst/sec) elapsed = 0:0:04:41 / Sun Feb 28 18:51:18 2016
GPGPU-Sim uArch: cycles simulated: 350500  inst.: 3709536 (ipc=10.6) sim_rate=13154 (inst/sec) elapsed = 0:0:04:42 / Sun Feb 28 18:51:19 2016
GPGPU-Sim uArch: cycles simulated: 352000  inst.: 3724192 (ipc=10.6) sim_rate=13159 (inst/sec) elapsed = 0:0:04:43 / Sun Feb 28 18:51:20 2016
GPGPU-Sim PTX: 3800000 instructions simulated : ctaid=(79,0,0) tid=(223,0,0)
GPGPU-Sim uArch: cycles simulated: 353500  inst.: 3738976 (ipc=10.6) sim_rate=13165 (inst/sec) elapsed = 0:0:04:44 / Sun Feb 28 18:51:21 2016
GPGPU-Sim uArch: cycles simulated: 355500  inst.: 3758304 (ipc=10.6) sim_rate=13187 (inst/sec) elapsed = 0:0:04:45 / Sun Feb 28 18:51:22 2016
GPGPU-Sim uArch: cycles simulated: 357000  inst.: 3773632 (ipc=10.6) sim_rate=13194 (inst/sec) elapsed = 0:0:04:46 / Sun Feb 28 18:51:23 2016
GPGPU-Sim uArch: cycles simulated: 358500  inst.: 3787072 (ipc=10.6) sim_rate=13195 (inst/sec) elapsed = 0:0:04:47 / Sun Feb 28 18:51:24 2016
GPGPU-Sim uArch: cycles simulated: 360500  inst.: 3805984 (ipc=10.6) sim_rate=13215 (inst/sec) elapsed = 0:0:04:48 / Sun Feb 28 18:51:25 2016
GPGPU-Sim uArch: cycles simulated: 362000  inst.: 3819808 (ipc=10.6) sim_rate=13217 (inst/sec) elapsed = 0:0:04:49 / Sun Feb 28 18:51:26 2016
GPGPU-Sim uArch: cycles simulated: 363500  inst.: 3832864 (ipc=10.5) sim_rate=13216 (inst/sec) elapsed = 0:0:04:50 / Sun Feb 28 18:51:27 2016
GPGPU-Sim PTX: 3900000 instructions simulated : ctaid=(28,0,0) tid=(191,0,0)
GPGPU-Sim uArch: cycles simulated: 365500  inst.: 3851136 (ipc=10.5) sim_rate=13234 (inst/sec) elapsed = 0:0:04:51 / Sun Feb 28 18:51:28 2016
GPGPU-Sim uArch: cycles simulated: 367000  inst.: 3864256 (ipc=10.5) sim_rate=13233 (inst/sec) elapsed = 0:0:04:52 / Sun Feb 28 18:51:29 2016
GPGPU-Sim uArch: cycles simulated: 368500  inst.: 3876416 (ipc=10.5) sim_rate=13230 (inst/sec) elapsed = 0:0:04:53 / Sun Feb 28 18:51:30 2016
GPGPU-Sim uArch: cycles simulated: 370500  inst.: 3894048 (ipc=10.5) sim_rate=13245 (inst/sec) elapsed = 0:0:04:54 / Sun Feb 28 18:51:31 2016
GPGPU-Sim uArch: cycles simulated: 372000  inst.: 3908480 (ipc=10.5) sim_rate=13249 (inst/sec) elapsed = 0:0:04:55 / Sun Feb 28 18:51:32 2016
GPGPU-Sim uArch: cycles simulated: 374000  inst.: 3926272 (ipc=10.5) sim_rate=13264 (inst/sec) elapsed = 0:0:04:56 / Sun Feb 28 18:51:33 2016
GPGPU-Sim PTX: 4000000 instructions simulated : ctaid=(11,0,0) tid=(255,0,0)
GPGPU-Sim uArch: cycles simulated: 375500  inst.: 3939104 (ipc=10.5) sim_rate=13262 (inst/sec) elapsed = 0:0:04:57 / Sun Feb 28 18:51:34 2016
GPGPU-Sim uArch: Shader 9 finished CTA #0 (376305,0), 5 CTAs running
GPGPU-Sim uArch: core:  9, cta: 0 initialized @(376306,0)
GPGPU-Sim uArch: cycles simulated: 377000  inst.: 3953984 (ipc=10.5) sim_rate=13268 (inst/sec) elapsed = 0:0:04:58 / Sun Feb 28 18:51:35 2016
GPGPU-Sim uArch: Shader 10 finished CTA #0 (378035,0), 5 CTAs running
GPGPU-Sim uArch: core: 10, cta: 0 initialized @(378036,0)
GPGPU-Sim uArch: cycles simulated: 379000  inst.: 3977472 (ipc=10.5) sim_rate=13302 (inst/sec) elapsed = 0:0:04:59 / Sun Feb 28 18:51:36 2016
GPGPU-Sim uArch: Shader 12 finished CTA #0 (379720,0), 5 CTAs running
GPGPU-Sim uArch: core: 12, cta: 0 initialized @(379721,0)
GPGPU-Sim uArch: cycles simulated: 380500  inst.: 3993024 (ipc=10.5) sim_rate=13310 (inst/sec) elapsed = 0:0:05:00 / Sun Feb 28 18:51:37 2016
GPGPU-Sim uArch: Shader 14 finished CTA #0 (381273,0), 5 CTAs running
GPGPU-Sim uArch: core: 14, cta: 0 initialized @(381274,0)
GPGPU-Sim uArch: cycles simulated: 382000  inst.: 4010240 (ipc=10.5) sim_rate=13323 (inst/sec) elapsed = 0:0:05:01 / Sun Feb 28 18:51:38 2016
GPGPU-Sim uArch: Shader 8 finished CTA #0 (382526,0), 5 CTAs running
GPGPU-Sim uArch: core:  8, cta: 0 initialized @(382527,0)
GPGPU-Sim uArch: Shader 4 finished CTA #0 (382652,0), 5 CTAs running
GPGPU-Sim uArch: core:  4, cta: 0 initialized @(382653,0)
GPGPU-Sim uArch: Shader 6 finished CTA #0 (382826,0), 5 CTAs running
GPGPU-Sim uArch: core:  6, cta: 0 initialized @(382827,0)
GPGPU-Sim uArch: Shader 13 finished CTA #0 (383114,0), 5 CTAs running
GPGPU-Sim uArch: core: 13, cta: 0 initialized @(383115,0)
GPGPU-Sim uArch: cycles simulated: 383500  inst.: 4030816 (ipc=10.5) sim_rate=13347 (inst/sec) elapsed = 0:0:05:02 / Sun Feb 28 18:51:39 2016
GPGPU-Sim PTX: 4100000 instructions simulated : ctaid=(96,0,0) tid=(31,0,0)
GPGPU-Sim uArch: Shader 5 finished CTA #0 (384061,0), 5 CTAs running
GPGPU-Sim uArch: core:  5, cta: 0 initialized @(384062,0)
GPGPU-Sim uArch: Shader 0 finished CTA #0 (384801,0), 5 CTAs running
GPGPU-Sim uArch: core:  0, cta: 0 initialized @(384802,0)
GPGPU-Sim uArch: cycles simulated: 385500  inst.: 4060448 (ipc=10.5) sim_rate=13400 (inst/sec) elapsed = 0:0:05:03 / Sun Feb 28 18:51:40 2016
GPGPU-Sim uArch: cycles simulated: 387000  inst.: 4079136 (ipc=10.5) sim_rate=13418 (inst/sec) elapsed = 0:0:05:04 / Sun Feb 28 18:51:41 2016
GPGPU-Sim uArch: cycles simulated: 388500  inst.: 4091840 (ipc=10.5) sim_rate=13415 (inst/sec) elapsed = 0:0:05:05 / Sun Feb 28 18:51:42 2016
GPGPU-Sim uArch: cycles simulated: 390000  inst.: 4103840 (ipc=10.5) sim_rate=13411 (inst/sec) elapsed = 0:0:05:06 / Sun Feb 28 18:51:43 2016
GPGPU-Sim uArch: Shader 7 finished CTA #0 (390543,0), 5 CTAs running
GPGPU-Sim uArch: core:  7, cta: 0 initialized @(390544,0)
GPGPU-Sim uArch: Shader 1 finished CTA #0 (391073,0), 5 CTAs running
GPGPU-Sim uArch: core:  1, cta: 0 initialized @(391074,0)
GPGPU-Sim uArch: cycles simulated: 391500  inst.: 4121696 (ipc=10.5) sim_rate=13425 (inst/sec) elapsed = 0:0:05:07 / Sun Feb 28 18:51:44 2016
GPGPU-Sim uArch: Shader 11 finished CTA #0 (392407,0), 5 CTAs running
GPGPU-Sim uArch: core: 11, cta: 0 initialized @(392408,0)
GPGPU-Sim PTX: 4200000 instructions simulated : ctaid=(98,0,0) tid=(95,0,0)
GPGPU-Sim uArch: cycles simulated: 393000  inst.: 4136736 (ipc=10.5) sim_rate=13430 (inst/sec) elapsed = 0:0:05:08 / Sun Feb 28 18:51:45 2016
GPGPU-Sim uArch: Shader 3 finished CTA #0 (394588,0), 5 CTAs running
GPGPU-Sim uArch: core:  3, cta: 0 initialized @(394589,0)
GPGPU-Sim uArch: cycles simulated: 395000  inst.: 4158144 (ipc=10.5) sim_rate=13456 (inst/sec) elapsed = 0:0:05:09 / Sun Feb 28 18:51:46 2016
GPGPU-Sim uArch: cycles simulated: 396500  inst.: 4173952 (ipc=10.5) sim_rate=13464 (inst/sec) elapsed = 0:0:05:10 / Sun Feb 28 18:51:47 2016
GPGPU-Sim uArch: cycles simulated: 398000  inst.: 4187232 (ipc=10.5) sim_rate=13463 (inst/sec) elapsed = 0:0:05:11 / Sun Feb 28 18:51:48 2016
GPGPU-Sim uArch: Shader 2 finished CTA #0 (399403,0), 5 CTAs running
GPGPU-Sim uArch: core:  2, cta: 0 initialized @(399404,0)
GPGPU-Sim uArch: cycles simulated: 399500  inst.: 4202976 (ipc=10.5) sim_rate=13471 (inst/sec) elapsed = 0:0:05:12 / Sun Feb 28 18:51:49 2016
GPGPU-Sim uArch: cycles simulated: 401000  inst.: 4217856 (ipc=10.5) sim_rate=13475 (inst/sec) elapsed = 0:0:05:13 / Sun Feb 28 18:51:50 2016
GPGPU-Sim uArch: cycles simulated: 402500  inst.: 4231392 (ipc=10.5) sim_rate=13475 (inst/sec) elapsed = 0:0:05:14 / Sun Feb 28 18:51:51 2016
GPGPU-Sim PTX: 4300000 instructions simulated : ctaid=(16,0,0) tid=(127,0,0)
GPGPU-Sim uArch: cycles simulated: 404000  inst.: 4245536 (ipc=10.5) sim_rate=13477 (inst/sec) elapsed = 0:0:05:15 / Sun Feb 28 18:51:52 2016
GPGPU-Sim uArch: cycles simulated: 405500  inst.: 4258304 (ipc=10.5) sim_rate=13475 (inst/sec) elapsed = 0:0:05:16 / Sun Feb 28 18:51:53 2016
GPGPU-Sim uArch: cycles simulated: 407500  inst.: 4277184 (ipc=10.5) sim_rate=13492 (inst/sec) elapsed = 0:0:05:17 / Sun Feb 28 18:51:54 2016
GPGPU-Sim uArch: cycles simulated: 409000  inst.: 4291936 (ipc=10.5) sim_rate=13496 (inst/sec) elapsed = 0:0:05:18 / Sun Feb 28 18:51:55 2016
GPGPU-Sim uArch: cycles simulated: 410500  inst.: 4305728 (ipc=10.5) sim_rate=13497 (inst/sec) elapsed = 0:0:05:19 / Sun Feb 28 18:51:56 2016
[...]
GPGPU-Sim uArch: cycles simulated: 1556500  inst.: 15911136 (ipc=10.2) sim_rate=15343 (inst/sec) elapsed = 0:0:17:17 / Sun Feb 28 19:03:54 2016
GPGPU-Sim uArch: cycles simulated: 1558000  inst.: 15926304 (ipc=10.2) sim_rate=15343 (inst/sec) elapsed = 0:0:17:18 / Sun Feb 28 19:03:55 2016
GPGPU-Sim uArch: Shader 13 finished CTA #0 (1558501,0), 5 CTAs running
GPGPU-Sim uArch: core: 13, cta: 0 initialized @(1558502,0)
GPGPU-Sim uArch: cycles simulated: 1559500  inst.: 15944576 (ipc=10.2) sim_rate=15346 (inst/sec) elapsed = 0:0:17:19 / Sun Feb 28 19:03:56 2016
GPGPU-Sim uArch: cycles simulated: 1561000  inst.: 15958112 (ipc=10.2) sim_rate=15344 (inst/sec) elapsed = 0:0:17:20 / Sun Feb 28 19:03:57 2016
GPGPU-Sim uArch: Shader 12 finished CTA #0 (1561162,0), 5 CTAs running
GPGPU-Sim uArch: core: 12, cta: 0 initialized @(1561163,0)
GPGPU-Sim uArch: Shader 11 finished CTA #0 (1561330,0), 5 CTAs running
GPGPU-Sim uArch: core: 11, cta: 0 initialized @(1561331,0)
GPGPU-Sim uArch: cycles simulated: 1562500  inst.: 15977408 (ipc=10.2) sim_rate=15348 (inst/sec) elapsed = 0:0:17:21 / Sun Feb 28 19:03:58 2016
GPGPU-Sim uArch: Shader 1 finished CTA #0 (1562507,0), 5 CTAs running
GPGPU-Sim uArch: core:  1, cta: 0 initialized @(1562508,0)
GPGPU-Sim uArch: cycles simulated: 1564500  inst.: 16002080 (ipc=10.2) sim_rate=15357 (inst/sec) elapsed = 0:0:17:22 / Sun Feb 28 19:03:59 2016
GPGPU-Sim uArch: Shader 6 finished CTA #0 (1565109,0), 5 CTAs running
GPGPU-Sim uArch: core:  6, cta: 0 initialized @(1565110,0)
GPGPU-Sim PTX: 16200000 instructions simulated : ctaid=(196,0,0) tid=(255,0,0)
GPGPU-Sim uArch: cycles simulated: 1566000  inst.: 16019136 (ipc=10.2) sim_rate=15358 (inst/sec) elapsed = 0:0:17:23 / Sun Feb 28 19:04:00 2016
GPGPU-Sim uArch: Shader 4 finished CTA #0 (1566905,0), 5 CTAs running
GPGPU-Sim uArch: core:  4, cta: 0 initialized @(1566906,0)
GPGPU-Sim uArch: Shader 2 finished CTA #0 (1567363,0), 5 CTAs running
GPGPU-Sim uArch: core:  2, cta: 0 initialized @(1567364,0)
GPGPU-Sim uArch: cycles simulated: 1567500  inst.: 16037312 (ipc=10.2) sim_rate=15361 (inst/sec) elapsed = 0:0:17:24 / Sun Feb 28 19:04:01 2016
GPGPU-Sim uArch: cycles simulated: 1569000  inst.: 16057856 (ipc=10.2) sim_rate=15366 (inst/sec) elapsed = 0:0:17:25 / Sun Feb 28 19:04:02 2016
GPGPU-Sim uArch: Shader 7 finished CTA #0 (1569105,0), 5 CTAs running
GPGPU-Sim uArch: core:  7, cta: 0 initialized @(1569106,0)
GPGPU-Sim uArch: Shader 3 finished CTA #0 (1570358,0), 5 CTAs running
GPGPU-Sim uArch: core:  3, cta: 0 initialized @(1570359,0)
GPGPU-Sim uArch: cycles simulated: 1570500  inst.: 16075456 (ipc=10.2) sim_rate=15368 (inst/sec) elapsed = 0:0:17:26 / Sun Feb 28 19:04:03 2016
GPGPU-Sim uArch: cycles simulated: 1572000  inst.: 16091424 (ipc=10.2) sim_rate=15369 (inst/sec) elapsed = 0:0:17:27 / Sun Feb 28 19:04:04 2016
GPGPU-Sim uArch: Shader 0 finished CTA #0 (1572967,0), 5 CTAs running
GPGPU-Sim uArch: core:  0, cta: 0 initialized @(1572968,0)
GPGPU-Sim PTX: 16300000 instructions simulated : ctaid=(280,0,0) tid=(31,0,0)
GPGPU-Sim uArch: cycles simulated: 1573500  inst.: 16107872 (ipc=10.2) sim_rate=15370 (inst/sec) elapsed = 0:0:17:28 / Sun Feb 28 19:04:05 2016
GPGPU-Sim uArch: Shader 5 finished CTA #0 (1574360,0), 5 CTAs running
GPGPU-Sim uArch: core:  5, cta: 0 initialized @(1574361,0)
GPGPU-Sim uArch: cycles simulated: 1575000  inst.: 16123584 (ipc=10.2) sim_rate=15370 (inst/sec) elapsed = 0:0:17:29 / Sun Feb 28 19:04:06 2016
GPGPU-Sim uArch: cycles simulated: 1576500  inst.: 16138592 (ipc=10.2) sim_rate=15370 (inst/sec) elapsed = 0:0:17:30 / Sun Feb 28 19:04:07 2016
GPGPU-Sim uArch: Shader 8 finished CTA #0 (1577553,0), 5 CTAs running
GPGPU-Sim uArch: core:  8, cta: 0 initialized @(1577554,0)
GPGPU-Sim uArch: cycles simulated: 1578000  inst.: 16152896 (ipc=10.2) sim_rate=15369 (inst/sec) elapsed = 0:0:17:31 / Sun Feb 28 19:04:08 2016
GPGPU-Sim uArch: Shader 14 finished CTA #0 (1579174,0), 5 CTAs running
GPGPU-Sim uArch: core: 14, cta: 0 initialized @(1579175,0)
GPGPU-Sim uArch: cycles simulated: 1579500  inst.: 16169952 (ipc=10.2) sim_rate=15370 (inst/sec) elapsed = 0:0:17:32 / Sun Feb 28 19:04:09 2016
GPGPU-Sim uArch: cycles simulated: 1581000  inst.: 16186400 (ipc=10.2) sim_rate=15371 (inst/sec) elapsed = 0:0:17:33 / Sun Feb 28 19:04:10 2016
GPGPU-Sim uArch: cycles simulated: 1582500  inst.: 16201152 (ipc=10.2) sim_rate=15371 (inst/sec) elapsed = 0:0:17:34 / Sun Feb 28 19:04:11 2016
GPGPU-Sim PTX: 16400000 instructions simulated : ctaid=(271,0,0) tid=(223,0,0)
GPGPU-Sim uArch: cycles simulated: 1584000  inst.: 16213152 (ipc=10.2) sim_rate=15367 (inst/sec) elapsed = 0:0:17:35 / Sun Feb 28 19:04:12 2016
GPGPU-Sim uArch: cycles simulated: 1585500  inst.: 16227264 (ipc=10.2) sim_rate=15366 (inst/sec) elapsed = 0:0:17:36 / Sun Feb 28 19:04:13 2016
GPGPU-Sim uArch: cycles simulated: 1587000  inst.: 16239904 (ipc=10.2) sim_rate=15364 (inst/sec) elapsed = 0:0:17:37 / Sun Feb 28 19:04:14 2016
GPGPU-Sim uArch: cycles simulated: 1588500  inst.: 16252992 (ipc=10.2) sim_rate=15361 (inst/sec) elapsed = 0:0:17:38 / Sun Feb 28 19:04:15 2016
GPGPU-Sim uArch: cycles simulated: 1590000  inst.: 16268000 (ipc=10.2) sim_rate=15361 (inst/sec) elapsed = 0:0:17:39 / Sun Feb 28 19:04:16 2016
GPGPU-Sim uArch: cycles simulated: 1592000  inst.: 16286880 (ipc=10.2) sim_rate=15364 (inst/sec) elapsed = 0:0:17:40 / Sun Feb 28 19:04:17 2016
GPGPU-Sim uArch: cycles simulated: 1593500  inst.: 16300544 (ipc=10.2) sim_rate=15363 (inst/sec) elapsed = 0:0:17:41 / Sun Feb 28 19:04:18 2016
GPGPU-Sim PTX: 16500000 instructions simulated : ctaid=(278,0,0) tid=(159,0,0)
GPGPU-Sim uArch: cycles simulated: 1595000  inst.: 16315584 (ipc=10.2) sim_rate=15363 (inst/sec) elapsed = 0:0:17:42 / Sun Feb 28 19:04:19 2016
GPGPU-Sim uArch: cycles simulated: 1596500  inst.: 16329600 (ipc=10.2) sim_rate=15361 (inst/sec) elapsed = 0:0:17:43 / Sun Feb 28 19:04:20 2016
GPGPU-Sim uArch: cycles simulated: 1598000  inst.: 16342112 (ipc=10.2) sim_rate=15359 (inst/sec) elapsed = 0:0:17:44 / Sun Feb 28 19:04:21 2016
GPGPU-Sim uArch: cycles simulated: 1599500  inst.: 16357440 (ipc=10.2) sim_rate=15359 (inst/sec) elapsed = 0:0:17:45 / Sun Feb 28 19:04:22 2016
GPGPU-Sim uArch: cycles simulated: 1601000  inst.: 16370432 (ipc=10.2) sim_rate=15356 (inst/sec) elapsed = 0:0:17:46 / Sun Feb 28 19:04:23 2016
GPGPU-Sim uArch: cycles simulated: 1603000  inst.: 16390112 (ipc=10.2) sim_rate=15360 (inst/sec) elapsed = 0:0:17:47 / Sun Feb 28 19:04:24 2016
GPGPU-Sim PTX: 16600000 instructions simulated : ctaid=(197,0,0) tid=(191,0,0)
GPGPU-Sim uArch: cycles simulated: 1604500  inst.: 16404064 (ipc=10.2) sim_rate=15359 (inst/sec) elapsed = 0:0:17:48 / Sun Feb 28 19:04:25 2016
GPGPU-Sim uArch: cycles simulated: 1606000  inst.: 16417696 (ipc=10.2) sim_rate=15357 (inst/sec) elapsed = 0:0:17:49 / Sun Feb 28 19:04:26 2016
GPGPU-Sim uArch: cycles simulated: 1607500  inst.: 16432352 (ipc=10.2) sim_rate=15357 (inst/sec) elapsed = 0:0:17:50 / Sun Feb 28 19:04:27 2016
GPGPU-Sim uArch: cycles simulated: 1609000  inst.: 16447488 (ipc=10.2) sim_rate=15357 (inst/sec) elapsed = 0:0:17:51 / Sun Feb 28 19:04:28 2016
GPGPU-Sim uArch: cycles simulated: 1610500  inst.: 16460160 (ipc=10.2) sim_rate=15354 (inst/sec) elapsed = 0:0:17:52 / Sun Feb 28 19:04:29 2016
GPGPU-Sim uArch: cycles simulated: 1612500  inst.: 16478336 (ipc=10.2) sim_rate=15357 (inst/sec) elapsed = 0:0:17:53 / Sun Feb 28 19:04:30 2016
GPGPU-Sim uArch: cycles simulated: 1614000  inst.: 16492576 (ipc=10.2) sim_rate=15356 (inst/sec) elapsed = 0:0:17:54 / Sun Feb 28 19:04:31 2016
GPGPU-Sim PTX: 16700000 instructions simulated : ctaid=(211,0,0) tid=(63,0,0)
GPGPU-Sim uArch: cycles simulated: 1615500  inst.: 16508224 (ipc=10.2) sim_rate=15356 (inst/sec) elapsed = 0:0:17:55 / Sun Feb 28 19:04:32 2016
GPGPU-Sim uArch: cycles simulated: 1617000  inst.: 16522848 (ipc=10.2) sim_rate=15355 (inst/sec) elapsed = 0:0:17:56 / Sun Feb 28 19:04:33 2016
GPGPU-Sim uArch: cycles simulated: 1618500  inst.: 16536896 (ipc=10.2) sim_rate=15354 (inst/sec) elapsed = 0:0:17:57 / Sun Feb 28 19:04:34 2016
GPGPU-Sim uArch: cycles simulated: 1620000  inst.: 16551040 (ipc=10.2) sim_rate=15353 (inst/sec) elapsed = 0:0:17:58 / Sun Feb 28 19:04:35 2016
GPGPU-Sim uArch: cycles simulated: 1622000  inst.: 16570144 (ipc=10.2) sim_rate=15356 (inst/sec) elapsed = 0:0:17:59 / Sun Feb 28 19:04:36 2016
GPGPU-Sim uArch: cycles simulated: 1623500  inst.: 16584032 (ipc=10.2) sim_rate=15355 (inst/sec) elapsed = 0:0:18:00 / Sun Feb 28 19:04:37 2016
GPGPU-Sim uArch: cycles simulated: 1625000  inst.: 16598496 (ipc=10.2) sim_rate=15354 (inst/sec) elapsed = 0:0:18:01 / Sun Feb 28 19:04:38 2016
GPGPU-Sim PTX: 16800000 instructions simulated : ctaid=(280,0,0) tid=(223,0,0)
GPGPU-Sim uArch: cycles simulated: 1626500  inst.: 16612256 (ipc=10.2) sim_rate=15353 (inst/sec) elapsed = 0:0:18:02 / Sun Feb 28 19:04:39 2016
GPGPU-Sim uArch: cycles simulated: 1628000  inst.: 16626944 (ipc=10.2) sim_rate=15352 (inst/sec) elapsed = 0:0:18:03 / Sun Feb 28 19:04:40 2016
GPGPU-Sim uArch: cycles simulated: 1630000  inst.: 16645792 (ipc=10.2) sim_rate=15355 (inst/sec) elapsed = 0:0:18:04 / Sun Feb 28 19:04:41 2016
GPGPU-Sim uArch: cycles simulated: 1631500  inst.: 16660832 (ipc=10.2) sim_rate=15355 (inst/sec) elapsed = 0:0:18:05 / Sun Feb 28 19:04:42 2016
GPGPU-Sim uArch: cycles simulated: 1633000  inst.: 16676640 (ipc=10.2) sim_rate=15356 (inst/sec) elapsed = 0:0:18:06 / Sun Feb 28 19:04:43 2016
GPGPU-Sim uArch: cycles simulated: 1634500  inst.: 16692096 (ipc=10.2) sim_rate=15356 (inst/sec) elapsed = 0:0:18:07 / Sun Feb 28 19:04:44 2016
GPGPU-Sim PTX: 16900000 instructions simulated : ctaid=(283,0,0) tid=(31,0,0)
GPGPU-Sim uArch: cycles simulated: 1636000  inst.: 16706304 (ipc=10.2) sim_rate=15355 (inst/sec) elapsed = 0:0:18:08 / Sun Feb 28 19:04:45 2016
GPGPU-Sim uArch: cycles simulated: 1638000  inst.: 16730176 (ipc=10.2) sim_rate=15362 (inst/sec) elapsed = 0:0:18:09 / Sun Feb 28 19:04:46 2016
GPGPU-Sim uArch: cycles simulated: 1639500  inst.: 16747424 (ipc=10.2) sim_rate=15364 (inst/sec) elapsed = 0:0:18:10 / Sun Feb 28 19:04:47 2016
GPGPU-Sim uArch: Shader 1 finished CTA #1 (1640812,0), 5 CTAs running
GPGPU-Sim uArch: core:  1, cta: 1 initialized @(1640813,0)
GPGPU-Sim uArch: cycles simulated: 1641000  inst.: 16762464 (ipc=10.2) sim_rate=15364 (inst/sec) elapsed = 0:0:18:11 / Sun Feb 28 19:04:48 2016
GPGPU-Sim uArch: cycles simulated: 1642500  inst.: 16781536 (ipc=10.2) sim_rate=15367 (inst/sec) elapsed = 0:0:18:12 / Sun Feb 28 19:04:49 2016
GPGPU-Sim PTX: 17000000 instructions simulated : ctaid=(285,0,0) tid=(159,0,0)
GPGPU-Sim uArch: cycles simulated: 1644500  inst.: 16804352 (ipc=10.2) sim_rate=15374 (inst/sec) elapsed = 0:0:18:13 / Sun Feb 28 19:04:50 2016
GPGPU-Sim uArch: cycles simulated: 1646000  inst.: 16819808 (ipc=10.2) sim_rate=15374 (inst/sec) elapsed = 0:0:18:14 / Sun Feb 28 19:04:51 2016
GPGPU-Sim uArch: cycles simulated: 1647500  inst.: 16835552 (ipc=10.2) sim_rate=15374 (inst/sec) elapsed = 0:0:18:15 / Sun Feb 28 19:04:52 2016
GPGPU-Sim uArch: cycles simulated: 1649500  inst.: 16856928 (ipc=10.2) sim_rate=15380 (inst/sec) elapsed = 0:0:18:16 / Sun Feb 28 19:04:53 2016
GPGPU-Sim uArch: cycles simulated: 1651000  inst.: 16871168 (ipc=10.2) sim_rate=15379 (inst/sec) elapsed = 0:0:18:17 / Sun Feb 28 19:04:54 2016
GPGPU-Sim uArch: Shader 9 finished CTA #1 (1651499,0), 5 CTAs running
GPGPU-Sim uArch: core:  9, cta: 1 initialized @(1651500,0)
GPGPU-Sim uArch: cycles simulated: 1652500  inst.: 16890496 (ipc=10.2) sim_rate=15382 (inst/sec) elapsed = 0:0:18:18 / Sun Feb 28 19:04:55 2016
GPGPU-Sim PTX: 17100000 instructions simulated : ctaid=(223,0,0) tid=(255,0,0)
GPGPU-Sim uArch: cycles simulated: 1654000  inst.: 16905696 (ipc=10.2) sim_rate=15382 (inst/sec) elapsed = 0:0:18:19 / Sun Feb 28 19:04:56 2016
GPGPU-Sim uArch: cycles simulated: 1656000  inst.: 16929152 (ipc=10.2) sim_rate=15390 (inst/sec) elapsed = 0:0:18:20 / Sun Feb 28 19:04:57 2016
GPGPU-Sim uArch: Shader 14 finished CTA #1 (1656136,0), 5 CTAs running
GPGPU-Sim uArch: core: 14, cta: 1 initialized @(1656137,0)
GPGPU-Sim uArch: Shader 11 finished CTA #1 (1656934,0), 5 CTAs running
GPGPU-Sim uArch: core: 11, cta: 1 initialized @(1656935,0)
GPGPU-Sim uArch: cycles simulated: 1657500  inst.: 16948032 (ipc=10.2) sim_rate=15393 (inst/sec) elapsed = 0:0:18:21 / Sun Feb 28 19:04:58 2016
GPGPU-Sim uArch: Shader 8 finished CTA #1 (1658061,0), 5 CTAs running
GPGPU-Sim uArch: core:  8, cta: 1 initialized @(1658062,0)
GPGPU-Sim uArch: Shader 13 finished CTA #1 (1658986,0), 5 CTAs running
GPGPU-Sim uArch: core: 13, cta: 1 initialized @(1658987,0)
GPGPU-Sim uArch: cycles simulated: 1659000  inst.: 16968640 (ipc=10.2) sim_rate=15398 (inst/sec) elapsed = 0:0:18:22 / Sun Feb 28 19:04:59 2016
GPGPU-Sim uArch: cycles simulated: 1660500  inst.: 16985664 (ipc=10.2) sim_rate=15399 (inst/sec) elapsed = 0:0:18:23 / Sun Feb 28 19:05:00 2016
GPGPU-Sim PTX: 17200000 instructions simulated : ctaid=(285,0,0) tid=(31,0,0)
GPGPU-Sim uArch: cycles simulated: 1662000  inst.: 17001856 (ipc=10.2) sim_rate=15400 (inst/sec) elapsed = 0:0:18:24 / Sun Feb 28 19:05:01 2016
GPGPU-Sim uArch: cycles simulated: 1664000  inst.: 17020352 (ipc=10.2) sim_rate=15403 (inst/sec) elapsed = 0:0:18:25 / Sun Feb 28 19:05:02 2016
GPGPU-Sim uArch: cycles simulated: 1665500  inst.: 17032224 (ipc=10.2) sim_rate=15399 (inst/sec) elapsed = 0:0:18:26 / Sun Feb 28 19:05:03 2016
GPGPU-Sim uArch: Shader 10 finished CTA #1 (1666523,0), 5 CTAs running
GPGPU-Sim uArch: core: 10, cta: 1 initialized @(1666524,0)
GPGPU-Sim uArch: Shader 4 finished CTA #1 (1666829,0), 5 CTAs running
GPGPU-Sim uArch: core:  4, cta: 1 initialized @(1666830,0)
GPGPU-Sim uArch: cycles simulated: 1667000  inst.: 17049696 (ipc=10.2) sim_rate=15401 (inst/sec) elapsed = 0:0:18:27 / Sun Feb 28 19:05:04 2016
GPGPU-Sim uArch: Shader 7 finished CTA #1 (1667859,0), 5 CTAs running
GPGPU-Sim uArch: core:  7, cta: 1 initialized @(1667860,0)
GPGPU-Sim uArch: cycles simulated: 1668500  inst.: 17065792 (ipc=10.2) sim_rate=15402 (inst/sec) elapsed = 0:0:18:28 / Sun Feb 28 19:05:05 2016
GPGPU-Sim uArch: Shader 12 finished CTA #1 (1668925,0), 5 CTAs running
GPGPU-Sim uArch: core: 12, cta: 1 initialized @(1668926,0)
GPGPU-Sim uArch: Shader 0 finished CTA #1 (1669625,0), 5 CTAs running
GPGPU-Sim uArch: core:  0, cta: 1 initialized @(1669626,0)
GPGPU-Sim uArch: cycles simulated: 1670000  inst.: 17087040 (ipc=10.2) sim_rate=15407 (inst/sec) elapsed = 0:0:18:29 / Sun Feb 28 19:05:06 2016
GPGPU-Sim PTX: 17300000 instructions simulated : ctaid=(292,0,0) tid=(95,0,0)
GPGPU-Sim uArch: cycles simulated: 1671500  inst.: 17104992 (ipc=10.2) sim_rate=15409 (inst/sec) elapsed = 0:0:18:30 / Sun Feb 28 19:05:07 2016
GPGPU-Sim uArch: cycles simulated: 1673000  inst.: 17119840 (ipc=10.2) sim_rate=15409 (inst/sec) elapsed = 0:0:18:31 / Sun Feb 28 19:05:08 2016
GPGPU-Sim uArch: cycles simulated: 1674500  inst.: 17132384 (ipc=10.2) sim_rate=15406 (inst/sec) elapsed = 0:0:18:32 / Sun Feb 28 19:05:09 2016
GPGPU-Sim uArch: Shader 5 finished CTA #1 (1675277,0), 5 CTAs running
GPGPU-Sim uArch: core:  5, cta: 1 initialized @(1675278,0)
GPGPU-Sim uArch: cycles simulated: 1676000  inst.: 17145920 (ipc=10.2) sim_rate=15405 (inst/sec) elapsed = 0:0:18:33 / Sun Feb 28 19:05:10 2016
GPGPU-Sim uArch: Shader 2 finished CTA #1 (1677007,0), 5 CTAs running
GPGPU-Sim uArch: core:  2, cta: 1 initialized @(1677008,0)
GPGPU-Sim uArch: cycles simulated: 1677500  inst.: 17164672 (ipc=10.2) sim_rate=15408 (inst/sec) elapsed = 0:0:18:34 / Sun Feb 28 19:05:11 2016
GPGPU-Sim uArch: cycles simulated: 1679000  inst.: 17180896 (ipc=10.2) sim_rate=15408 (inst/sec) elapsed = 0:0:18:35 / Sun Feb 28 19:05:12 2016
GPGPU-Sim uArch: cycles simulated: 1680500  inst.: 17194304 (ipc=10.2) sim_rate=15407 (inst/sec) elapsed = 0:0:18:36 / Sun Feb 28 19:05:13 2016
GPGPU-Sim PTX: 17400000 instructions simulated : ctaid=(222,0,0) tid=(255,0,0)
GPGPU-Sim uArch: Shader 6 finished CTA #1 (1681070,0), 5 CTAs running
GPGPU-Sim uArch: core:  6, cta: 1 initialized @(1681071,0)
GPGPU-Sim uArch: cycles simulated: 1682000  inst.: 17210848 (ipc=10.2) sim_rate=15408 (inst/sec) elapsed = 0:0:18:37 / Sun Feb 28 19:05:14 2016
GPGPU-Sim uArch: cycles simulated: 1683500  inst.: 17227040 (ipc=10.2) sim_rate=15408 (inst/sec) elapsed = 0:0:18:38 / Sun Feb 28 19:05:15 2016
GPGPU-Sim uArch: cycles simulated: 1685000  inst.: 17242464 (ipc=10.2) sim_rate=15408 (inst/sec) elapsed = 0:0:18:39 / Sun Feb 28 19:05:16 2016
GPGPU-Sim uArch: cycles simulated: 1686500  inst.: 17255776 (ipc=10.2) sim_rate=15406 (inst/sec) elapsed = 0:0:18:40 / Sun Feb 28 19:05:17 2016
GPGPU-Sim uArch: cycles simulated: 1688000  inst.: 17270272 (ipc=10.2) sim_rate=15406 (inst/sec) elapsed = 0:0:18:41 / Sun Feb 28 19:05:18 2016
GPGPU-Sim uArch: cycles simulated: 1689500  inst.: 17281440 (ipc=10.2) sim_rate=15402 (inst/sec) elapsed = 0:0:18:42 / Sun Feb 28 19:05:19 2016
GPGPU-Sim PTX: 17500000 instructions simulated : ctaid=(289,0,0) tid=(95,0,0)
GPGPU-Sim uArch: cycles simulated: 1691000  inst.: 17296256 (ipc=10.2) sim_rate=15401 (inst/sec) elapsed = 0:0:18:43 / Sun Feb 28 19:05:20 2016
GPGPU-Sim uArch: Shader 3 finished CTA #1 (1691924,0), 5 CTAs running
GPGPU-Sim uArch: core:  3, cta: 1 initialized @(1691925,0)
GPGPU-Sim uArch: cycles simulated: 1692500  inst.: 17311008 (ipc=10.2) sim_rate=15401 (inst/sec) elapsed = 0:0:18:44 / Sun Feb 28 19:05:21 2016
GPGPU-Sim uArch: cycles simulated: 1694000  inst.: 17327968 (ipc=10.2) sim_rate=15402 (inst/sec) elapsed = 0:0:18:45 / Sun Feb 28 19:05:22 2016
GPGPU-Sim uArch: cycles simulated: 1695500  inst.: 17342432 (ipc=10.2) sim_rate=15401 (inst/sec) elapsed = 0:0:18:46 / Sun Feb 28 19:05:23 2016
GPGPU-Sim uArch: cycles simulated: 1697000  inst.: 17356032 (ipc=10.2) sim_rate=15400 (inst/sec) elapsed = 0:0:18:47 / Sun Feb 28 19:05:24 2016
GPGPU-Sim uArch: cycles simulated: 1698500  inst.: 17369312 (ipc=10.2) sim_rate=15398 (inst/sec) elapsed = 0:0:18:48 / Sun Feb 28 19:05:25 2016
GPGPU-Sim uArch: cycles simulated: 1700000  inst.: 17382912 (ipc=10.2) sim_rate=15396 (inst/sec) elapsed = 0:0:18:49 / Sun Feb 28 19:05:26 2016
GPGPU-Sim PTX: 17600000 instructions simulated : ctaid=(293,0,0) tid=(31,0,0)
GPGPU-Sim uArch: cycles simulated: 1701500  inst.: 17396832 (ipc=10.2) sim_rate=15395 (inst/sec) elapsed = 0:0:18:50 / Sun Feb 28 19:05:27 2016
GPGPU-Sim uArch: cycles simulated: 1703000  inst.: 17411168 (ipc=10.2) sim_rate=15394 (inst/sec) elapsed = 0:0:18:51 / Sun Feb 28 19:05:28 2016
GPGPU-Sim uArch: cycles simulated: 1704500  inst.: 17424736 (ipc=10.2) sim_rate=15392 (inst/sec) elapsed = 0:0:18:52 / Sun Feb 28 19:05:29 2016
GPGPU-Sim uArch: cycles simulated: 1706500  inst.: 17443840 (ipc=10.2) sim_rate=15396 (inst/sec) elapsed = 0:0:18:53 / Sun Feb 28 19:05:30 2016
GPGPU-Sim uArch: cycles simulated: 1708000  inst.: 17455520 (ipc=10.2) sim_rate=15392 (inst/sec) elapsed = 0:0:18:54 / Sun Feb 28 19:05:31 2016
GPGPU-Sim uArch: cycles simulated: 1709500  inst.: 17470592 (ipc=10.2) sim_rate=15392 (inst/sec) elapsed = 0:0:18:55 / Sun Feb 28 19:05:32 2016
GPGPU-Sim uArch: cycles simulated: 1711000  inst.: 17484896 (ipc=10.2) sim_rate=15391 (inst/sec) elapsed = 0:0:18:56 / Sun Feb 28 19:05:33 2016
GPGPU-Sim PTX: 17700000 instructions simulated : ctaid=(287,0,0) tid=(31,0,0)
GPGPU-Sim uArch: cycles simulated: 1712500  inst.: 17499936 (ipc=10.2) sim_rate=15391 (inst/sec) elapsed = 0:0:18:57 / Sun Feb 28 19:05:34 2016
GPGPU-Sim uArch: cycles simulated: 1714000  inst.: 17513120 (ipc=10.2) sim_rate=15389 (inst/sec) elapsed = 0:0:18:58 / Sun Feb 28 19:05:35 2016
GPGPU-Sim uArch: cycles simulated: 1715500  inst.: 17528800 (ipc=10.2) sim_rate=15389 (inst/sec) elapsed = 0:0:18:59 / Sun Feb 28 19:05:36 2016
GPGPU-Sim uArch: cycles simulated: 1717000  inst.: 17542080 (ipc=10.2) sim_rate=15387 (inst/sec) elapsed = 0:0:19:00 / Sun Feb 28 19:05:37 2016
GPGPU-Sim uArch: cycles simulated: 1718500  inst.: 17556480 (ipc=10.2) sim_rate=15386 (inst/sec) elapsed = 0:0:19:01 / Sun Feb 28 19:05:38 2016
