

        *** GPGPU-Sim Simulator Version 3.2.2  [build 0] ***


GPGPU-Sim PTX: simulation mode 0 (can change with PTX_SIM_MODE_FUNC environment variable:
               1=functional simulation only, 0=detailed performance simulator)
GPGPU-Sim: Configuration options:

-network_mode                           1 # Interconnection network mode
-inter_config_file   config_fermi_islip.icnt # Interconnection network config file
-gpgpu_ptx_use_cuobjdump                    1 # Use cuobjdump to extract ptx and sass from binaries
-gpgpu_experimental_lib_support                    0 # Try to extract code from cuda libraries [Broken because of unknown cudaGetExportTable]
-gpgpu_ptx_convert_to_ptxplus                    0 # Convert SASS (native ISA) to ptxplus and run ptxplus
-gpgpu_ptx_force_max_capability                   20 # Force maximum compute capability
-gpgpu_ptx_inst_debug_to_file                    0 # Dump executed instructions' debug information to file
-gpgpu_ptx_inst_debug_file       inst_debug.txt # Executed instructions' debug output file
-gpgpu_ptx_inst_debug_thread_uid                    1 # Thread UID for executed instructions' debug output
-gpgpu_simd_model                       1 # 1 = post-dominator
-gpgpu_shader_core_pipeline              1536:32 # shader core pipeline config, i.e., {<nthread>:<warpsize>}
-gpgpu_tex_cache:l1  4:128:24,L:R:m:N:L,F:128:4,128:2 # per-shader L1 texture cache  (READ-ONLY) config  {<nsets>:<bsize>:<assoc>,<rep>:<wr>:<alloc>:<wr_alloc>,<mshr>:<N>:<merge>,<mq>:<rf>}
-gpgpu_const_cache:l1 64:64:2,L:R:f:N:L,A:2:32,4 # per-shader L1 constant memory cache  (READ-ONLY) config  {<nsets>:<bsize>:<assoc>,<rep>:<wr>:<alloc>:<wr_alloc>,<mshr>:<N>:<merge>,<mq>} 
-gpgpu_cache:il1     4:128:4,L:R:f:N:L,A:2:32,4 # shader L1 instruction cache config  {<nsets>:<bsize>:<assoc>,<rep>:<wr>:<alloc>:<wr_alloc>,<mshr>:<N>:<merge>,<mq>} 
-gpgpu_cache:dl1     32:128:4,L:L:m:N:H,A:32:8,8 # per-shader L1 data cache config  {<nsets>:<bsize>:<assoc>,<rep>:<wr>:<alloc>:<wr_alloc>,<mshr>:<N>:<merge>,<mq> | none}
-gpgpu_cache:dl1PrefL1                 none # per-shader L1 data cache config  {<nsets>:<bsize>:<assoc>,<rep>:<wr>:<alloc>:<wr_alloc>,<mshr>:<N>:<merge>,<mq> | none}
-gpgpu_cache:dl1PreShared                 none # per-shader L1 data cache config  {<nsets>:<bsize>:<assoc>,<rep>:<wr>:<alloc>:<wr_alloc>,<mshr>:<N>:<merge>,<mq> | none}
-gmem_skip_L1D                          0 # global memory access skip L1D cache (implements -Xptxas -dlcm=cg, default=no skip)
-gpgpu_perfect_mem                      0 # enable perfect memory mode (no cache miss)
-n_regfile_gating_group                    4 # group of lanes that should be read/written together)
-gpgpu_clock_gated_reg_file                    0 # enable clock gated reg file for power calculations
-gpgpu_clock_gated_lanes                    0 # enable clock gated lanes for power calculations
-gpgpu_shader_registers                32768 # Number of registers per shader core. Limits number of concurrent CTAs. (default 8192)
-gpgpu_shader_cta                       8 # Maximum number of concurrent CTAs in shader (default 8)
-gpgpu_num_cta_barriers                   16 # Maximum number of named barriers per CTA (default 16)
-gpgpu_n_clusters                      15 # number of processing clusters
-gpgpu_n_cores_per_cluster                    1 # number of simd cores per cluster
-gpgpu_n_cluster_ejection_buffer_size                    8 # number of packets in ejection buffer
-gpgpu_n_ldst_response_buffer_size                    2 # number of response packets in ld/st unit ejection buffer
-gpgpu_shmem_size                   16384 # Size of shared memory per shader core (default 16kB)
-gpgpu_shmem_size                   49152 # Size of shared memory per shader core (default 16kB)
-gpgpu_shmem_size_PrefL1                16384 # Size of shared memory per shader core (default 16kB)
-gpgpu_shmem_size_PrefShared                16384 # Size of shared memory per shader core (default 16kB)
-gpgpu_shmem_num_banks                   32 # Number of banks in the shared memory in each shader core (default 16)
-gpgpu_shmem_limited_broadcast                    0 # Limit shared memory to do one broadcast per cycle (default on)
-gpgpu_shmem_warp_parts                    1 # Number of portions a warp is divided into for shared memory bank conflict check 
-gpgpu_warpdistro_shader                   -1 # Specify which shader core to collect the warp size distribution from
-gpgpu_warp_issue_shader                    0 # Specify which shader core to collect the warp issue distribution from
-gpgpu_local_mem_map                    1 # Mapping from local memory space address to simulated GPU physical address space (default = enabled)
-gpgpu_num_reg_banks                   16 # Number of register banks (default = 8)
-gpgpu_reg_bank_use_warp_id                    0 # Use warp ID in mapping registers to banks (default = off)
-gpgpu_operand_collector_num_units_sp                    6 # number of collector units (default = 4)
-gpgpu_operand_collector_num_units_sfu                    8 # number of collector units (default = 4)
-gpgpu_operand_collector_num_units_mem                    2 # number of collector units (default = 2)
-gpgpu_operand_collector_num_units_gen                    0 # number of collector units (default = 0)
-gpgpu_operand_collector_num_in_ports_sp                    2 # number of collector unit in ports (default = 1)
-gpgpu_operand_collector_num_in_ports_sfu                    1 # number of collector unit in ports (default = 1)
-gpgpu_operand_collector_num_in_ports_mem                    1 # number of collector unit in ports (default = 1)
-gpgpu_operand_collector_num_in_ports_gen                    0 # number of collector unit in ports (default = 0)
-gpgpu_operand_collector_num_out_ports_sp                    2 # number of collector unit in ports (default = 1)
-gpgpu_operand_collector_num_out_ports_sfu                    1 # number of collector unit in ports (default = 1)
-gpgpu_operand_collector_num_out_ports_mem                    1 # number of collector unit in ports (default = 1)
-gpgpu_operand_collector_num_out_ports_gen                    0 # number of collector unit in ports (default = 0)
-gpgpu_coalesce_arch                   13 # Coalescing arch (default = 13, anything else is off for now)
-gpgpu_num_sched_per_core                    2 # Number of warp schedulers per core
-gpgpu_max_insn_issue_per_warp                    1 # Max number of instructions that can be issued per warp in one cycle by scheduler
-gpgpu_simt_core_sim_order                    1 # Select the simulation order of cores in a cluster (0=Fix, 1=Round-Robin)
-gpgpu_pipeline_widths        2,1,1,2,1,1,2 # Pipeline widths ID_OC_SP,ID_OC_SFU,ID_OC_MEM,OC_EX_SP,OC_EX_SFU,OC_EX_MEM,EX_WB
-gpgpu_num_sp_units                     2 # Number of SP units (default=1)
-gpgpu_num_sfu_units                    1 # Number of SF units (default=1)
-gpgpu_num_mem_units                    1 # Number if ldst units (default=1) WARNING: not hooked up to anything
-gpgpu_scheduler                      gto # Scheduler configuration: < lrr | gto | two_level_active > If two_level_active:<num_active_warps>:<inner_prioritization>:<outer_prioritization>For complete list of prioritization values see shader.h enum scheduler_prioritization_typeDefault: gto
-gpgpu_dram_scheduler                    1 # 0 = fifo, 1 = FR-FCFS (defaul)
-gpgpu_dram_partition_queues              8:8:8:8 # i2$:$2d:d2$:$2i
-l2_ideal                               0 # Use a ideal L2 cache that always hit
-gpgpu_cache:dl2     64:128:8,L:B:m:W:L,A:32:4,4:0,32 # unified banked L2 data cache config  {<nsets>:<bsize>:<assoc>,<rep>:<wr>:<alloc>:<wr_alloc>,<mshr>:<N>:<merge>,<mq>}
-gpgpu_cache:dl2_texture_only                    0 # L2 cache used for texture only
-gpgpu_n_mem                            6 # number of memory modules (e.g. memory controllers) in gpu
-gpgpu_n_sub_partition_per_mchannel                    2 # number of memory subpartition in each memory module
-gpgpu_n_mem_per_ctrlr                    2 # number of memory chips per memory controller
-gpgpu_memlatency_stat                   14 # track and display latency statistics 0x2 enables MC, 0x4 enables queue logs
-gpgpu_frfcfs_dram_sched_queue_size                   16 # 0 = unlimited (default); # entries per chip
-gpgpu_dram_return_queue_size                  116 # 0 = unlimited (default); # entries per chip
-gpgpu_dram_buswidth                    4 # default = 4 bytes (8 bytes per cycle at DDR)
-gpgpu_dram_burst_length                   16 # Burst length of each DRAM request (default = 4 data bus cycle)
-dram_data_command_freq_ratio                    4 # Frequency ratio between DRAM data bus and command bus (default = 2 times, i.e. DDR)
-gpgpu_dram_timing_opt nbk=16:CCD=2:RRD=6:RCD=12:RAS=28:RP=12:RC=40: CL=12:WL=4:CDLR=5:WR=12:nbkgrp=4:CCDL=3:RTPL=2 # DRAM timing parameters = {nbk:tCCD:tRRD:tRCD:tRAS:tRP:tRC:CL:WL:tCDLR:tWR:nbkgrp:tCCDL:tRTPL}
-rop_latency                          120 # ROP queue latency (default 85)
-dram_latency                         100 # DRAM latency (default 30)
-gpgpu_mem_addr_mapping dramid@8;00000000.00000000.00000000.00000000.0000RRRR.RRRRRRRR.BBBCCCCB.CCSSSSSS # mapping memory address to dram model {dramid@<start bit>;<memory address map>}
-gpgpu_mem_addr_test                    0 # run sweep test to check address mapping for aliased address
-gpgpu_mem_address_mask                    1 # 0 = old addressing mask, 1 = new addressing mask, 2 = new add. mask + flipped bank sel and chip sel bits
-gpuwattch_xml_file  gpuwattch_gtx480.xml # GPUWattch XML file
-power_simulation_enabled                    0 # Turn on power simulator (1=On, 0=Off)
-power_per_cycle_dump                    0 # Dump detailed power output each cycle
-power_trace_enabled                    0 # produce a file for the power trace (1=On, 0=Off)
-power_trace_zlevel                     6 # Compression level of the power trace output log (0=no comp, 9=highest)
-steady_power_levels_enabled                    0 # produce a file for the steady power levels (1=On, 0=Off)
-steady_state_definition                  8:4 # allowed deviation:number of samples
-gpgpu_max_cycle                        0 # terminates gpu simulation early (0 = no limit)
-gpgpu_max_insn                         0 # terminates gpu simulation early (0 = no limit)
-gpgpu_max_cta                          0 # terminates gpu simulation early (0 = no limit)
-gpgpu_runtime_stat                   500 # display runtime statistics such as dram utilization {<freq>:<flag>}
-liveness_message_freq                    1 # Minimum number of seconds between simulation liveness messages (0 = always print)
-gpgpu_flush_l1_cache                    0 # Flush L1 cache at the end of each kernel call
-gpgpu_flush_l2_cache                    0 # Flush L2 cache at the end of each kernel call
-gpgpu_deadlock_detect                    1 # Stop the simulation at deadlock (1=on (default), 0=off)
-gpgpu_ptx_instruction_classification                    0 # if enabled will classify ptx instruction types per kernel (Max 255 kernels now)
-gpgpu_ptx_sim_mode                     0 # Select between Performance (default) or Functional simulation (1)
-gpgpu_clock_domains 700.0:700.0:700.0:924.0 # Clock Domain Frequencies in MhZ {<Core Clock>:<ICNT Clock>:<L2 Clock>:<DRAM Clock>}
-gpgpu_max_concurrent_kernel                    8 # maximum kernels that can run concurrently on GPU
-gpgpu_cflog_interval                    0 # Interval between each snapshot in control flow logger
-visualizer_enabled                     0 # Turn on visualizer output (1=On, 0=Off)
-visualizer_outputfile                 NULL # Specifies the output log file for visualizer
-visualizer_zlevel                      6 # Compression level of the visualizer output log (0=no comp, 9=highest)
-trace_enabled                          0 # Turn on traces
-trace_components                    none # comma seperated list of traces to enable. Complete list found in trace_streams.tup. Default none
-trace_sampling_core                    0 # The core which is printed using CORE_DPRINTF. Default 0
-trace_sampling_memory_partition                   -1 # The memory partition which is printed using MEMPART_DPRINTF. Default -1 (i.e. all)
-enable_ptx_file_line_stats                    1 # Turn on PTX source line statistic profiling. (1 = On)
-ptx_line_stats_filename gpgpu_inst_stats.txt # Output file for PTX source line statistics.
-save_embedded_ptx                      0 # saves ptx files embedded in binary as <n>.ptx
-keep                                   0 # keep intermediate files created by GPGPU-Sim when interfacing with external programs
-gpgpu_ptx_save_converted_ptxplus                    0 # Saved converted ptxplus to a file
-ptx_opcode_latency_int         4,13,4,5,145 # Opcode latencies for integers <ADD,MAX,MUL,MAD,DIV>Default 1,1,19,25,145
-ptx_opcode_latency_fp          4,13,4,5,39 # Opcode latencies for single precision floating points <ADD,MAX,MUL,MAD,DIV>Default 1,1,1,1,30
-ptx_opcode_latency_dp         8,19,8,8,330 # Opcode latencies for double precision floating points <ADD,MAX,MUL,MAD,DIV>Default 8,8,8,8,335
-ptx_opcode_initiation_int            1,2,2,1,8 # Opcode initiation intervals for integers <ADD,MAX,MUL,MAD,DIV>Default 1,1,4,4,32
-ptx_opcode_initiation_fp            1,2,1,1,4 # Opcode initiation intervals for single precision floating points <ADD,MAX,MUL,MAD,DIV>Default 1,1,1,1,5
-ptx_opcode_initiation_dp         8,16,8,8,130 # Opcode initiation intervals for double precision floating points <ADD,MAX,MUL,MAD,DIV>Default 8,8,8,8,130
DRAM Timing Options:
nbk                                    16 # number of banks
CCD                                     2 # column to column delay
RRD                                     6 # minimal delay between activation of rows in different banks
RCD                                    12 # row to column delay
RAS                                    28 # time needed to activate row
RP                                     12 # time needed to precharge (deactivate) row
RC                                     40 # row cycle time
CDLR                                    5 # switching from write to read (changes tWTR)
WR                                     12 # last data-in to row precharge
CL                                     12 # CAS latency
WL                                      4 # Write latency
nbkgrp                                  4 # number of bank groups
CCDL                                    3 # column to column delay between accesses to different bank groups
RTPL                                    2 # read to precharge delay between accesses to different bank groups
Total number of memory sub partition = 12
addr_dec_mask[CHIP]  = 0000000000000000 	high:64 low:0
addr_dec_mask[BK]    = 000000000000e100 	high:16 low:8
addr_dec_mask[ROW]   = 000000000fff0000 	high:28 low:16
addr_dec_mask[COL]   = 0000000000001eff 	high:13 low:0
addr_dec_mask[BURST] = 000000000000003f 	high:6 low:0
sub_partition_id_mask = 0000000000000100
GPGPU-Sim uArch: clock freqs: 700000000.000000:700000000.000000:700000000.000000:924000000.000000
GPGPU-Sim uArch: clock periods: 0.00000000142857142857:0.00000000142857142857:0.00000000142857142857:0.00000000108225108225
*** Initializing Memory Statistics ***
GPGPU-Sim uArch: interconnect node map (shaderID+MemID to icntID)
GPGPU-Sim uArch: Memory nodes ID start from index: 15
GPGPU-Sim uArch:    0   1   2   3   4
GPGPU-Sim uArch:    5   6   7   8   9
GPGPU-Sim uArch:   10  11  12  13  14
GPGPU-Sim uArch:   15  16  17  18  19
GPGPU-Sim uArch:   20  21  22  23  24
GPGPU-Sim uArch:   25  26
GPGPU-Sim uArch: interconnect node reverse map (icntID to shaderID+MemID)
GPGPU-Sim uArch: Memory nodes start from ID: 15
GPGPU-Sim uArch:    0   1   2   3   4
GPGPU-Sim uArch:    5   6   7   8   9
GPGPU-Sim uArch:   10  11  12  13  14
GPGPU-Sim uArch:   15  16  17  18  19
GPGPU-Sim uArch:   20  21  22  23  24
GPGPU-Sim uArch:   25  26
316bcbff5f8f022bb22b20bb4721e93e  /sciclone/data20/adwait/applications/benchmarks/CUDA/RAY/gpgpu_ptx_sim__RAY
GPGPU-Sim uArch: performance model initialization complete.
GPGPU-Sim PTX: __cudaRegisterFatBinary, fat_cubin_handle = 1, filename=rayTracing.cu
self exe links to: /sciclone/data20/adwait/applications/benchmarks/CUDA/RAY/gpgpu_ptx_sim__RAY
Running md5sum using "md5sum /sciclone/data20/adwait/applications/benchmarks/CUDA/RAY/gpgpu_ptx_sim__RAY "
Parsing file _cuobjdump_complete_output_CUqP67
######### cuobjdump parser ########
## Adding new section ELF
Adding arch: sm_20
Adding identifier: rayTracing.cu
## Adding new section PTX
Adding ptx filename: _cuobjdump_1.ptx
Adding arch: sm_20
Adding identifier: rayTracing.cu
Done parsing!!!
GPGPU-Sim PTX: __cudaRegisterFunction _Z6renderPjP4Nodejjff : hostFun 0x0x40ce13, fat_cubin_handle = 1
GPGPU-Sim PTX: allocating stack frame region for .param "__cudaretf__Zmi6float3S_" from 0x0 to 0xc
GPGPU-Sim PTX: allocating stack frame region for .param "__cudaparmf1__Zmi6float3S_" from 0xc to 0x18
GPGPU-Sim PTX: allocating stack frame region for .param "__cudaparmf2__Zmi6float3S_" from 0x18 to 0x24
GPGPU-Sim PTX: allocating stack frame region for .param "__cudaretf__Z9normalize6float3" from 0x0 to 0xc
GPGPU-Sim PTX: allocating stack frame region for .param "__cudaparmf1__Z9normalize6float3" from 0xc to 0x18
GPGPU-Sim PTX: allocating stack frame region for .param "__cudaretf__Z18intersectionSphere5Rayon6float3f" from 0x0 to 0x4
GPGPU-Sim PTX: allocating stack frame region for .param "__cudaparmf1__Z18intersectionSphere5Rayon6float3f" from 0x4 to 0x1c
GPGPU-Sim PTX: allocating stack frame region for .param "__cudaparmf2__Z18intersectionSphere5Rayon6float3f" from 0x1c to 0x28
GPGPU-Sim PTX: allocating stack frame region for .param "__cudaparmf3__Z18intersectionSphere5Rayon6float3f" from 0x28 to 0x2c
GPGPU-Sim PTX: allocating stack frame region for .param "__cudaretf__Z16intersectionPlan5Rayon6float3S0_" from 0x0 to 0x4
GPGPU-Sim PTX: allocating stack frame region for .param "__cudaparmf1__Z16intersectionPlan5Rayon6float3S0_" from 0x4 to 0x1c
GPGPU-Sim PTX: allocating stack frame region for .param "__cudaparmf2__Z16intersectionPlan5Rayon6float3S0_" from 0x1c to 0x28
GPGPU-Sim PTX: allocating stack frame region for .param "__cudaparmf3__Z16intersectionPlan5Rayon6float3S0_" from 0x28 to 0x34
GPGPU-Sim PTX: allocating stack frame region for .param "__cudaretf__Z10getNormale6float3S_" from 0x0 to 0xc
GPGPU-Sim PTX: allocating stack frame region for .param "__cudaparmf1__Z10getNormale6float3S_" from 0xc to 0x18
GPGPU-Sim PTX: allocating stack frame region for .param "__cudaparmf2__Z10getNormale6float3S_" from 0x18 to 0x24
GPGPU-Sim PTX: allocating stack frame region for .param "__cudaretf__Z11getNormaleP6float3" from 0x0 to 0xc
GPGPU-Sim PTX: allocating stack frame region for .param "__cudaparmf1__Z11getNormaleP6float3" from 0xc to 0x18
GPGPU-Sim PTX: allocating stack frame region for .param "__cudaretf__Z14rgbaFloatToInt6float4" from 0x0 to 0x4
GPGPU-Sim PTX: allocating stack frame region for .param "__cudaparmf1__Z14rgbaFloatToInt6float4" from 0x4 to 0x14
GPGPU-Sim PTX: allocating stack frame region for .param "__cudaretf__Z12notShadowRayP4Node6float3S1_f" from 0x0 to 0x4
GPGPU-Sim PTX: allocating stack frame region for .param "__cudaparmf1__Z12notShadowRayP4Node6float3S1_f" from 0x4 to 0xc
GPGPU-Sim PTX: allocating stack frame region for .param "__cudaparmf2__Z12notShadowRayP4Node6float3S1_f" from 0xc to 0x18
GPGPU-Sim PTX: allocating stack frame region for .param "__cudaparmf3__Z12notShadowRayP4Node6float3S1_f" from 0x18 to 0x24
GPGPU-Sim PTX: allocating stack frame region for .param "__cudaparmf4__Z12notShadowRayP4Node6float3S1_f" from 0x24 to 0x28
GPGPU-Sim PTX: allocating stack frame region for .param "__cudaretf__Z15float2int_pow20f" from 0x0 to 0x4
GPGPU-Sim PTX: allocating stack frame region for .param "__cudaparmf1__Z15float2int_pow20f" from 0x4 to 0x8
GPGPU-Sim PTX: allocating stack frame region for .param "__cudaretf__Z15float2int_pow50f" from 0x0 to 0x4
GPGPU-Sim PTX: allocating stack frame region for .param "__cudaparmf1__Z15float2int_pow50f" from 0x4 to 0x8
GPGPU-Sim PTX: allocating stack frame region for .param "__cudaparmf1__ZN4dim3C1Ejjj" from 0x0 to 0x8
GPGPU-Sim PTX: allocating stack frame region for .param "__cudaparmf2__ZN4dim3C1Ejjj" from 0x8 to 0xc
GPGPU-Sim PTX: allocating stack frame region for .param "__cudaparmf3__ZN4dim3C1Ejjj" from 0xc to 0x10
GPGPU-Sim PTX: allocating stack frame region for .param "__cudaparmf4__ZN4dim3C1Ejjj" from 0x10 to 0x14
GPGPU-Sim PTX: instruction assembly for function '_Zmi6float3S_'...   done.
GPGPU-Sim PTX: finding reconvergence points for '_Zmi6float3S_'...
GPGPU-Sim PTX: Finding dominators for '_Zmi6float3S_'...
GPGPU-Sim PTX: Finding immediate dominators for '_Zmi6float3S_'...
GPGPU-Sim PTX: Finding postdominators for '_Zmi6float3S_'...
GPGPU-Sim PTX: Finding immediate postdominators for '_Zmi6float3S_'...
GPGPU-Sim PTX: pre-decoding instructions for '_Zmi6float3S_'...
GPGPU-Sim PTX: reconvergence points for _Zmi6float3S_...
GPGPU-Sim PTX: ... end of reconvergence points for _Zmi6float3S_
GPGPU-Sim PTX: ... done pre-decoding instructions for '_Zmi6float3S_'.
GPGPU-Sim PTX: instruction assembly for function '_Z9normalize6float3'...   done.
GPGPU-Sim PTX: finding reconvergence points for '_Z9normalize6float3'...
GPGPU-Sim PTX: Finding dominators for '_Z9normalize6float3'...
GPGPU-Sim PTX: Finding immediate dominators for '_Z9normalize6float3'...
GPGPU-Sim PTX: Finding postdominators for '_Z9normalize6float3'...
GPGPU-Sim PTX: Finding immediate postdominators for '_Z9normalize6float3'...
GPGPU-Sim PTX: pre-decoding instructions for '_Z9normalize6float3'...
GPGPU-Sim PTX: reconvergence points for _Z9normalize6float3...
GPGPU-Sim PTX: ... end of reconvergence points for _Z9normalize6float3
GPGPU-Sim PTX: ... done pre-decoding instructions for '_Z9normalize6float3'.
GPGPU-Sim PTX: instruction assembly for function '_Z18intersectionSphere5Rayon6float3f'...   done.
GPGPU-Sim PTX: finding reconvergence points for '_Z18intersectionSphere5Rayon6float3f'...
GPGPU-Sim PTX: Finding dominators for '_Z18intersectionSphere5Rayon6float3f'...
GPGPU-Sim PTX: Finding immediate dominators for '_Z18intersectionSphere5Rayon6float3f'...
GPGPU-Sim PTX: Finding postdominators for '_Z18intersectionSphere5Rayon6float3f'...
GPGPU-Sim PTX: Finding immediate postdominators for '_Z18intersectionSphere5Rayon6float3f'...
GPGPU-Sim PTX: pre-decoding instructions for '_Z18intersectionSphere5Rayon6float3f'...
GPGPU-Sim PTX: reconvergence points for _Z18intersectionSphere5Rayon6float3f...
GPGPU-Sim PTX:  1 (potential) branch divergence @  PC=0x250 (_1.ptx:173) @%p2 bra $Lt_2_3074;
GPGPU-Sim PTX:    immediate post dominator      @  PC=0x2c0 (_1.ptx:193) mov.f32 %f39, %f32;
GPGPU-Sim PTX:  2 (potential) branch divergence @  PC=0x260 (_1.ptx:175) bra.uni $Lt_2_2818;
GPGPU-Sim PTX:    immediate post dominator      @  PC=0x2c0 (_1.ptx:193) mov.f32 %f39, %f32;
GPGPU-Sim PTX:  3 (potential) branch divergence @  PC=0x280 (_1.ptx:180) @!%p3 bra $Lt_2_3586;
GPGPU-Sim PTX:    immediate post dominator      @  PC=0x2c0 (_1.ptx:193) mov.f32 %f39, %f32;
GPGPU-Sim PTX:  4 (potential) branch divergence @  PC=0x290 (_1.ptx:182) bra.uni $Lt_2_3330;
GPGPU-Sim PTX:    immediate post dominator      @  PC=0x2c0 (_1.ptx:193) mov.f32 %f39, %f32;
GPGPU-Sim PTX: ... end of reconvergence points for _Z18intersectionSphere5Rayon6float3f
GPGPU-Sim PTX: ... done pre-decoding instructions for '_Z18intersectionSphere5Rayon6float3f'.
GPGPU-Sim PTX: instruction assembly for function '_Z16intersectionPlan5Rayon6float3S0_'...   done.
GPGPU-Sim PTX: finding reconvergence points for '_Z16intersectionPlan5Rayon6float3S0_'...
GPGPU-Sim PTX: Finding dominators for '_Z16intersectionPlan5Rayon6float3S0_'...
GPGPU-Sim PTX: Finding immediate dominators for '_Z16intersectionPlan5Rayon6float3S0_'...
GPGPU-Sim PTX: Finding postdominators for '_Z16intersectionPlan5Rayon6float3S0_'...
GPGPU-Sim PTX: Finding immediate postdominators for '_Z16intersectionPlan5Rayon6float3S0_'...
GPGPU-Sim PTX: pre-decoding instructions for '_Z16intersectionPlan5Rayon6float3S0_'...
GPGPU-Sim PTX: reconvergence points for _Z16intersectionPlan5Rayon6float3S0_...
GPGPU-Sim PTX:  1 (potential) branch divergence @  PC=0x320 (_1.ptx:214) @!%p1 bra $Lt_3_2050;
GPGPU-Sim PTX:    immediate post dominator      @  PC=0x368 (_1.ptx:227) mov.f32 %f14, %f9;
GPGPU-Sim PTX:  2 (potential) branch divergence @  PC=0x330 (_1.ptx:216) bra.uni $Lt_3_1794;
GPGPU-Sim PTX:    immediate post dominator      @  PC=0x368 (_1.ptx:227) mov.f32 %f14, %f9;
GPGPU-Sim PTX: ... end of reconvergence points for _Z16intersectionPlan5Rayon6float3S0_
GPGPU-Sim PTX: ... done pre-decoding instructions for '_Z16intersectionPlan5Rayon6float3S0_'.
GPGPU-Sim PTX: instruction assembly for function '_Z10getNormale6float3S_'...   done.
GPGPU-Sim PTX: finding reconvergence points for '_Z10getNormale6float3S_'...
GPGPU-Sim PTX: Finding dominators for '_Z10getNormale6float3S_'...
GPGPU-Sim PTX: Finding immediate dominators for '_Z10getNormale6float3S_'...
GPGPU-Sim PTX: Finding postdominators for '_Z10getNormale6float3S_'...
GPGPU-Sim PTX: Finding immediate postdominators for '_Z10getNormale6float3S_'...
GPGPU-Sim PTX: pre-decoding instructions for '_Z10getNormale6float3S_'...
GPGPU-Sim PTX: reconvergence points for _Z10getNormale6float3S_...
GPGPU-Sim PTX: ... end of reconvergence points for _Z10getNormale6float3S_
GPGPU-Sim PTX: ... done pre-decoding instructions for '_Z10getNormale6float3S_'.
GPGPU-Sim PTX: instruction assembly for function '_Z11getNormaleP6float3'...   done.
GPGPU-Sim PTX: finding reconvergence points for '_Z11getNormaleP6float3'...
GPGPU-Sim PTX: Finding dominators for '_Z11getNormaleP6float3'...
GPGPU-Sim PTX: Finding immediate dominators for '_Z11getNormaleP6float3'...
GPGPU-Sim PTX: Finding postdominators for '_Z11getNormaleP6float3'...
GPGPU-Sim PTX: Finding immediate postdominators for '_Z11getNormaleP6float3'...
GPGPU-Sim PTX: pre-decoding instructions for '_Z11getNormaleP6float3'...
GPGPU-Sim PTX: reconvergence points for _Z11getNormaleP6float3...
GPGPU-Sim PTX: ... end of reconvergence points for _Z11getNormaleP6float3
GPGPU-Sim PTX: ... done pre-decoding instructions for '_Z11getNormaleP6float3'.
GPGPU-Sim PTX: instruction assembly for function '_Z14rgbaFloatToInt6float4'...   done.
GPGPU-Sim PTX: finding reconvergence points for '_Z14rgbaFloatToInt6float4'...
GPGPU-Sim PTX: Finding dominators for '_Z14rgbaFloatToInt6float4'...
GPGPU-Sim PTX: Finding immediate dominators for '_Z14rgbaFloatToInt6float4'...
GPGPU-Sim PTX: Finding postdominators for '_Z14rgbaFloatToInt6float4'...
GPGPU-Sim PTX: Finding immediate postdominators for '_Z14rgbaFloatToInt6float4'...
GPGPU-Sim PTX: pre-decoding instructions for '_Z14rgbaFloatToInt6float4'...
GPGPU-Sim PTX: reconvergence points for _Z14rgbaFloatToInt6float4...
GPGPU-Sim PTX: ... end of reconvergence points for _Z14rgbaFloatToInt6float4
GPGPU-Sim PTX: ... done pre-decoding instructions for '_Z14rgbaFloatToInt6float4'.
GPGPU-Sim PTX: allocating global region for "cnode" from 0x100 to 0x1a0 (global memory space)
GPGPU-Sim PTX: instruction assembly for function '_Z12notShadowRayP4Node6float3S1_f'...   done.
GPGPU-Sim PTX: finding reconvergence points for '_Z12notShadowRayP4Node6float3S1_f'...
GPGPU-Sim PTX: Finding dominators for '_Z12notShadowRayP4Node6float3S1_f'...
GPGPU-Sim PTX: Finding immediate dominators for '_Z12notShadowRayP4Node6float3S1_f'...
GPGPU-Sim PTX: Finding postdominators for '_Z12notShadowRayP4Node6float3S1_f'...
GPGPU-Sim PTX: Finding immediate postdominators for '_Z12notShadowRayP4Node6float3S1_f'...
GPGPU-Sim PTX: pre-decoding instructions for '_Z12notShadowRayP4Node6float3S1_f'...
GPGPU-Sim PTX: reconvergence points for _Z12notShadowRayP4Node6float3S1_f...
GPGPU-Sim PTX:  1 (potential) branch divergence @  PC=0x638 (_1.ptx:364) @%p1 bra $Lt_7_8450;
GPGPU-Sim PTX:    immediate post dominator      @  PC=0x828 (_1.ptx:441) mov.f32 %f58, 0f00000000;    // 0
GPGPU-Sim PTX:  2 (potential) branch divergence @  PC=0x658 (_1.ptx:369) @!%p2 bra $Lt_7_8962;
GPGPU-Sim PTX:    immediate post dominator      @  PC=0x6b8 (_1.ptx:385) mov.f32 %f28, %f20;
GPGPU-Sim PTX:  3 (potential) branch divergence @  PC=0x668 (_1.ptx:371) bra.uni $Lt_7_8706;
GPGPU-Sim PTX:    immediate post dominator      @  PC=0x6b8 (_1.ptx:385) mov.f32 %f28, %f20;
GPGPU-Sim PTX:  4 (potential) branch divergence @  PC=0x6c0 (_1.ptx:386) bra.uni $Lt_7_8194;
GPGPU-Sim PTX:    immediate post dominator      @  PC=0x828 (_1.ptx:441) mov.f32 %f58, 0f00000000;    // 0
GPGPU-Sim PTX:  5 (potential) branch divergence @  PC=0x7b0 (_1.ptx:418) @%p5 bra $Lt_7_9474;
GPGPU-Sim PTX:    immediate post dominator      @  PC=0x820 (_1.ptx:438) mov.f32 %f28, %f51;
GPGPU-Sim PTX:  6 (potential) branch divergence @  PC=0x7c0 (_1.ptx:420) bra.uni $Lt_7_9730;
GPGPU-Sim PTX:    immediate post dominator      @  PC=0x820 (_1.ptx:438) mov.f32 %f28, %f51;
GPGPU-Sim PTX:  7 (potential) branch divergence @  PC=0x7e0 (_1.ptx:425) @!%p6 bra $Lt_7_9986;
GPGPU-Sim PTX:    immediate post dominator      @  PC=0x820 (_1.ptx:438) mov.f32 %f28, %f51;
GPGPU-Sim PTX:  8 (potential) branch divergence @  PC=0x7f0 (_1.ptx:427) bra.uni $Lt_7_9730;
GPGPU-Sim PTX:    immediate post dominator      @  PC=0x820 (_1.ptx:438) mov.f32 %f28, %f51;
GPGPU-Sim PTX:  9 (potential) branch divergence @  PC=0x838 (_1.ptx:443) @!%p7 bra $Lt_7_10242;
GPGPU-Sim PTX:    immediate post dominator      @  PC=0x8e8 (_1.ptx:468) add.s32 %r1, %r1, 1;
GPGPU-Sim PTX: 10 (potential) branch divergence @  PC=0x8d8 (_1.ptx:463) @!%p8 bra $Lt_7_10242;
GPGPU-Sim PTX:    immediate post dominator      @  PC=0x8e8 (_1.ptx:468) add.s32 %r1, %r1, 1;
GPGPU-Sim PTX: 11 (potential) branch divergence @  PC=0x908 (_1.ptx:472) @%p9 bra $Lt_7_10754;
GPGPU-Sim PTX:    immediate post dominator      @  PC=0x960 (_1.ptx:486) selp.s32 %r10, 1, 0, %p11;
GPGPU-Sim PTX: 12 (potential) branch divergence @  PC=0x930 (_1.ptx:477) @%p10 bra $L_7_7170;
GPGPU-Sim PTX:    immediate post dominator      @  PC=0x960 (_1.ptx:486) selp.s32 %r10, 1, 0, %p11;
GPGPU-Sim PTX: 13 (potential) branch divergence @  PC=0x938 (_1.ptx:478) bra.uni $L_7_7938;
GPGPU-Sim PTX:    immediate post dominator      @  PC=0x960 (_1.ptx:486) selp.s32 %r10, 1, 0, %p11;
GPGPU-Sim PTX: ... end of reconvergence points for _Z12notShadowRayP4Node6float3S1_f
GPGPU-Sim PTX: ... done pre-decoding instructions for '_Z12notShadowRayP4Node6float3S1_f'.
GPGPU-Sim PTX: instruction assembly for function '_Z15float2int_pow20f'...   done.
GPGPU-Sim PTX: finding reconvergence points for '_Z15float2int_pow20f'...
GPGPU-Sim PTX: Finding dominators for '_Z15float2int_pow20f'...
GPGPU-Sim PTX: Finding immediate dominators for '_Z15float2int_pow20f'...
GPGPU-Sim PTX: Finding postdominators for '_Z15float2int_pow20f'...
GPGPU-Sim PTX: Finding immediate postdominators for '_Z15float2int_pow20f'...
GPGPU-Sim PTX: pre-decoding instructions for '_Z15float2int_pow20f'...
GPGPU-Sim PTX: reconvergence points for _Z15float2int_pow20f...
GPGPU-Sim PTX: ... end of reconvergence points for _Z15float2int_pow20f
GPGPU-Sim PTX: ... done pre-decoding instructions for '_Z15float2int_pow20f'.
GPGPU-Sim PTX: instruction assembly for function '_Z15float2int_pow50f'...   done.
GPGPU-Sim PTX: finding reconvergence points for '_Z15float2int_pow50f'...
GPGPU-Sim PTX: Finding dominators for '_Z15float2int_pow50f'...
GPGPU-Sim PTX: Finding immediate dominators for '_Z15float2int_pow50f'...
GPGPU-Sim PTX: Finding postdominators for '_Z15float2int_pow50f'...
GPGPU-Sim PTX: Finding immediate postdominators for '_Z15float2int_pow50f'...
GPGPU-Sim PTX: pre-decoding instructions for '_Z15float2int_pow50f'...
GPGPU-Sim PTX: reconvergence points for _Z15float2int_pow50f...
GPGPU-Sim PTX: ... end of reconvergence points for _Z15float2int_pow50f
GPGPU-Sim PTX: ... done pre-decoding instructions for '_Z15float2int_pow50f'.
GPGPU-Sim PTX: allocating constant region for "MView" from 0x200 to 0x230 (global memory space) 1
GPGPU-Sim PTX: allocating stack frame region for .local "__cuda___cuda_local_var_35463_9_non_const_pile_32240" from 0x0 to 0x50
GPGPU-Sim PTX: instruction assembly for function '_Z6renderPjP4Nodejjff'...   done.
GPGPU-Sim PTX: finding reconvergence points for '_Z6renderPjP4Nodejjff'...
GPGPU-Sim PTX: Finding dominators for '_Z6renderPjP4Nodejjff'...
GPGPU-Sim PTX: Finding immediate dominators for '_Z6renderPjP4Nodejjff'...
GPGPU-Sim PTX: Finding postdominators for '_Z6renderPjP4Nodejjff'...
GPGPU-Sim PTX: Finding immediate postdominators for '_Z6renderPjP4Nodejjff'...
GPGPU-Sim PTX: pre-decoding instructions for '_Z6renderPjP4Nodejjff'...
GPGPU-Sim PTX: reconvergence points for _Z6renderPjP4Nodejjff...
GPGPU-Sim PTX:  1 (potential) branch divergence @  PC=0xdb0 (_1.ptx:663) @%p1 bra $Lt_10_44034;
GPGPU-Sim PTX:    immediate post dominator      @  PC=0x2370 (_1.ptx:1495) exit;
GPGPU-Sim PTX:  2 (potential) branch divergence @  PC=0x1028 (_1.ptx:751) @%p2 bra $Lt_10_45570;
GPGPU-Sim PTX:    immediate post dominator      @  PC=0x11b8 (_1.ptx:815) mov.f32 %f108, 0f00000000;   // 0
GPGPU-Sim PTX:  3 (potential) branch divergence @  PC=0x1048 (_1.ptx:756) @!%p3 bra $Lt_10_46082;
GPGPU-Sim PTX:    immediate post dominator      @  PC=0x1090 (_1.ptx:769) mov.f32 %f87, %f82;
GPGPU-Sim PTX:  4 (potential) branch divergence @  PC=0x1058 (_1.ptx:758) bra.uni $Lt_10_45826;
GPGPU-Sim PTX:    immediate post dominator      @  PC=0x1090 (_1.ptx:769) mov.f32 %f87, %f82;
GPGPU-Sim PTX:  5 (potential) branch divergence @  PC=0x1098 (_1.ptx:770) bra.uni $Lt_10_45314;
GPGPU-Sim PTX:    immediate post dominator      @  PC=0x11b8 (_1.ptx:815) mov.f32 %f108, 0f00000000;   // 0
GPGPU-Sim PTX:  6 (potential) branch divergence @  PC=0x1140 (_1.ptx:793) @%p6 bra $Lt_10_46594;
GPGPU-Sim PTX:    immediate post dominator      @  PC=0x11b0 (_1.ptx:813) mov.f32 %f87, %f101;
GPGPU-Sim PTX:  7 (potential) branch divergence @  PC=0x1150 (_1.ptx:795) bra.uni $Lt_10_46850;
GPGPU-Sim PTX:    immediate post dominator      @  PC=0x11b0 (_1.ptx:813) mov.f32 %f87, %f101;
GPGPU-Sim PTX:  8 (potential) branch divergence @  PC=0x1170 (_1.ptx:800) @!%p7 bra $Lt_10_47106;
GPGPU-Sim PTX:    immediate post dominator      @  PC=0x11b0 (_1.ptx:813) mov.f32 %f87, %f101;
GPGPU-Sim PTX:  9 (potential) branch divergence @  PC=0x1180 (_1.ptx:802) bra.uni $Lt_10_46850;
GPGPU-Sim PTX:    immediate post dominator      @  PC=0x11b0 (_1.ptx:813) mov.f32 %f87, %f101;
GPGPU-Sim PTX: 10 (potential) branch divergence @  PC=0x11f8 (_1.ptx:823) @%p8 bra $Lt_10_47362;
GPGPU-Sim PTX:    immediate post dominator      @  PC=0x1210 (_1.ptx:829) add.s32 %r25, %r25, 1;
GPGPU-Sim PTX: 11 (potential) branch divergence @  PC=0x1230 (_1.ptx:833) @%p9 bra $Lt_10_45058;
GPGPU-Sim PTX:    immediate post dominator      @  PC=0x1238 (_1.ptx:834) mov.f32 %f109, 0f00000000;   // 0
GPGPU-Sim PTX: 12 (potential) branch divergence @  PC=0x1280 (_1.ptx:843) @%p10 bra $Lt_10_48130;
GPGPU-Sim PTX:    immediate post dominator      @  PC=0x2140 (_1.ptx:1416) add.s32 %r23, %r23, 1;
GPGPU-Sim PTX: 13 (potential) branch divergence @  PC=0x1330 (_1.ptx:868) @%p11 bra $Lt_10_48898;
GPGPU-Sim PTX:    immediate post dominator      @  PC=0x13b8 (_1.ptx:888) sub.f32 %f136, %f21, %f119;
GPGPU-Sim PTX: 14 (potential) branch divergence @  PC=0x1350 (_1.ptx:873) bra.uni $Lt_10_48642;
GPGPU-Sim PTX:    immediate post dominator      @  PC=0x13b8 (_1.ptx:888) sub.f32 %f136, %f21, %f119;
GPGPU-Sim PTX: 15 (potential) branch divergence @  PC=0x1430 (_1.ptx:903) @!%p12 bra $Lt_10_49410;
GPGPU-Sim PTX:    immediate post dominator      @  PC=0x1470 (_1.ptx:915) mov.f32 %f153, 0f3d4ccccd;   // 0.05
GPGPU-Sim PTX: 16 (potential) branch divergence @  PC=0x1450 (_1.ptx:908) bra.uni $Lt_10_49154;
GPGPU-Sim PTX:    immediate post dominator      @  PC=0x1470 (_1.ptx:915) mov.f32 %f153, 0f3d4ccccd;   // 0.05
GPGPU-Sim PTX: 17 (potential) branch divergence @  PC=0x1578 (_1.ptx:949) @!%p13 bra $Lt_10_58114;
GPGPU-Sim PTX:    immediate post dominator      @  PC=0x2080 (_1.ptx:1388) add.f32 %f399, %f126, %f126;
GPGPU-Sim PTX: 18 (potential) branch divergence @  PC=0x15c0 (_1.ptx:961) @%p14 bra $Lt_10_49922;
GPGPU-Sim PTX:    immediate post dominator      @  PC=0x17b0 (_1.ptx:1039) mov.f32 %f221, 0f00000000;   // 0
GPGPU-Sim PTX: 19 (potential) branch divergence @  PC=0x15e0 (_1.ptx:966) @!%p15 bra $Lt_10_50434;
GPGPU-Sim PTX:    immediate post dominator      @  PC=0x1638 (_1.ptx:982) mov.f32 %f190, %f183;
GPGPU-Sim PTX: 20 (potential) branch divergence @  PC=0x15f0 (_1.ptx:968) bra.uni $Lt_10_50178;
GPGPU-Sim PTX:    immediate post dominator      @  PC=0x1638 (_1.ptx:982) mov.f32 %f190, %f183;
GPGPU-Sim PTX: 21 (potential) branch divergence @  PC=0x1640 (_1.ptx:983) bra.uni $Lt_10_49666;
GPGPU-Sim PTX:    immediate post dominator      @  PC=0x17b0 (_1.ptx:1039) mov.f32 %f221, 0f00000000;   // 0
GPGPU-Sim PTX: 22 (potential) branch divergence @  PC=0x1738 (_1.ptx:1016) @%p18 bra $Lt_10_50946;
GPGPU-Sim PTX:    immediate post dominator      @  PC=0x17a8 (_1.ptx:1036) mov.f32 %f190, %f214;
GPGPU-Sim PTX: 23 (potential) branch divergence @  PC=0x1748 (_1.ptx:1018) bra.uni $Lt_10_51202;
GPGPU-Sim PTX:    immediate post dominator      @  PC=0x17a8 (_1.ptx:1036) mov.f32 %f190, %f214;
GPGPU-Sim PTX: 24 (potential) branch divergence @  PC=0x1768 (_1.ptx:1023) @!%p19 bra $Lt_10_51458;
GPGPU-Sim PTX:    immediate post dominator      @  PC=0x17a8 (_1.ptx:1036) mov.f32 %f190, %f214;
GPGPU-Sim PTX: 25 (potential) branch divergence @  PC=0x1778 (_1.ptx:1025) bra.uni $Lt_10_51202;
GPGPU-Sim PTX:    immediate post dominator      @  PC=0x17a8 (_1.ptx:1036) mov.f32 %f190, %f214;
GPGPU-Sim PTX: 26 (potential) branch divergence @  PC=0x17c0 (_1.ptx:1041) @!%p20 bra $Lt_10_58370;
GPGPU-Sim PTX:    immediate post dominator      @  PC=0x1828 (_1.ptx:1057) add.s32 %r50, %r50, 1;
GPGPU-Sim PTX: 27 (potential) branch divergence @  PC=0x1818 (_1.ptx:1052) @!%p21 bra $Lt_10_58370;
GPGPU-Sim PTX:    immediate post dominator      @  PC=0x1828 (_1.ptx:1057) add.s32 %r50, %r50, 1;
GPGPU-Sim PTX: 28 (potential) branch divergence @  PC=0x1848 (_1.ptx:1061) @%p22 bra $Lt_10_58882;
GPGPU-Sim PTX:    immediate post dominator      @  PC=0x1880 (_1.ptx:1071) @!%p23 bra $Lt_10_58114;
GPGPU-Sim PTX: 29 (potential) branch divergence @  PC=0x1860 (_1.ptx:1064) @%p23 bra $L_10_42498;
GPGPU-Sim PTX:    immediate post dominator      @  PC=0x1880 (_1.ptx:1071) @!%p23 bra $Lt_10_58114;
GPGPU-Sim PTX: 30 (potential) branch divergence @  PC=0x1868 (_1.ptx:1065) bra.uni $L_10_43266;
GPGPU-Sim PTX:    immediate post dominator      @  PC=0x1880 (_1.ptx:1071) @!%p23 bra $Lt_10_58114;
GPGPU-Sim PTX: 31 (potential) branch divergence @  PC=0x1880 (_1.ptx:1071) @!%p23 bra $Lt_10_58114;
GPGPU-Sim PTX:    immediate post dominator      @  PC=0x2080 (_1.ptx:1388) add.f32 %f399, %f126, %f126;
GPGPU-Sim PTX: 32 (potential) branch divergence @  PC=0x19c8 (_1.ptx:1115) @!%p24 bra $Lt_10_51714;
GPGPU-Sim PTX:    immediate post dominator      @  PC=0x2040 (_1.ptx:1375) mov.f32 %f394, 0f3f4ccccd;   // 0.8
GPGPU-Sim PTX: 33 (potential) branch divergence @  PC=0x19d8 (_1.ptx:1118) bra.uni $LDWendi___isnanf_192_1;
GPGPU-Sim PTX:    immediate post dominator      @  PC=0x2040 (_1.ptx:1375) mov.f32 %f394, 0f3f4ccccd;   // 0.8
GPGPU-Sim PTX: 34 (potential) branch divergence @  PC=0x19f8 (_1.ptx:1124) @!%p25 bra $Lt_10_7682;
GPGPU-Sim PTX:    immediate post dominator      @  PC=0x2040 (_1.ptx:1375) mov.f32 %f394, 0f3f4ccccd;   // 0.8
GPGPU-Sim PTX: 35 (potential) branch divergence @  PC=0x1a00 (_1.ptx:1125) bra.uni $Lt_10_7938;
GPGPU-Sim PTX:    immediate post dominator      @  PC=0x1a20 (_1.ptx:1133) mov.f32 %f272, 0f7f800000;   // ((1.0F)/(0.0F))
GPGPU-Sim PTX: 36 (potential) branch divergence @  PC=0x1a18 (_1.ptx:1130) bra.uni $LDWendi___isnanf_192_1;
GPGPU-Sim PTX:    immediate post dominator      @  PC=0x2040 (_1.ptx:1375) mov.f32 %f394, 0f3f4ccccd;   // 0.8
GPGPU-Sim PTX: 37 (potential) branch divergence @  PC=0x1a30 (_1.ptx:1135) @!%p26 bra $Lt_10_52226;
GPGPU-Sim PTX:    immediate post dominator      @  PC=0x2040 (_1.ptx:1375) mov.f32 %f394, 0f3f4ccccd;   // 0.8
GPGPU-Sim PTX: 38 (potential) branch divergence @  PC=0x1a40 (_1.ptx:1138) bra.uni $LDWendi___isnanf_192_1;
GPGPU-Sim PTX:    immediate post dominator      @  PC=0x2040 (_1.ptx:1375) mov.f32 %f394, 0f3f4ccccd;   // 0.8
GPGPU-Sim PTX: 39 (potential) branch divergence @  PC=0x1a58 (_1.ptx:1142) @!%p27 bra $Lt_10_52738;
GPGPU-Sim PTX:    immediate post dominator      @  PC=0x2040 (_1.ptx:1375) mov.f32 %f394, 0f3f4ccccd;   // 0.8
GPGPU-Sim PTX: 40 (potential) branch divergence @  PC=0x1ab8 (_1.ptx:1155) bra.uni $LDWendi___isnanf_192_1;
GPGPU-Sim PTX:    immediate post dominator      @  PC=0x2040 (_1.ptx:1375) mov.f32 %f394, 0f3f4ccccd;   // 0.8
GPGPU-Sim PTX: 41 (potential) branch divergence @  PC=0x1ad0 (_1.ptx:1159) @!%p29 bra $Lt_10_53250;
GPGPU-Sim PTX:    immediate post dominator      @  PC=0x2040 (_1.ptx:1375) mov.f32 %f394, 0f3f4ccccd;   // 0.8
GPGPU-Sim PTX: 42 (potential) branch divergence @  PC=0x1b20 (_1.ptx:1170) @!%p30 bra $Lt_10_53762;
GPGPU-Sim PTX:    immediate post dominator      @  PC=0x1b40 (_1.ptx:1177) mov.f32 %f268, %f284;
GPGPU-Sim PTX: 43 (potential) branch divergence @  PC=0x1b48 (_1.ptx:1178) bra.uni $LDWendi___isnanf_192_1;
GPGPU-Sim PTX:    immediate post dominator      @  PC=0x2040 (_1.ptx:1375) mov.f32 %f394, 0f3f4ccccd;   // 0.8
GPGPU-Sim PTX: 44 (potential) branch divergence @  PC=0x1b60 (_1.ptx:1183) @!%p31 bra $Lt_10_59394;
GPGPU-Sim PTX:    immediate post dominator      @  PC=0x2040 (_1.ptx:1375) mov.f32 %f394, 0f3f4ccccd;   // 0.8
GPGPU-Sim PTX: 45 (potential) branch divergence @  PC=0x1b88 (_1.ptx:1188) @!%p32 bra $Lt_10_59394;
GPGPU-Sim PTX:    immediate post dominator      @  PC=0x2040 (_1.ptx:1375) mov.f32 %f394, 0f3f4ccccd;   // 0.8
GPGPU-Sim PTX: 46 (potential) branch divergence @  PC=0x1ba0 (_1.ptx:1192) bra.uni $LDWendi___isnanf_192_1;
GPGPU-Sim PTX:    immediate post dominator      @  PC=0x2040 (_1.ptx:1375) mov.f32 %f394, 0f3f4ccccd;   // 0.8
GPGPU-Sim PTX: 47 (potential) branch divergence @  PC=0x1bd8 (_1.ptx:1202) @%p33 bra $Lt_10_54530;
GPGPU-Sim PTX:    immediate post dominator      @  PC=0x1c20 (_1.ptx:1216) sub.s32 %r64, %r64, 127;
GPGPU-Sim PTX: 48 (potential) branch divergence @  PC=0x1c10 (_1.ptx:1211) bra.uni $Lt_10_54274;
GPGPU-Sim PTX:    immediate post dominator      @  PC=0x1c20 (_1.ptx:1216) sub.s32 %r64, %r64, 127;
GPGPU-Sim PTX: 49 (potential) branch divergence @  PC=0x1c58 (_1.ptx:1224) @!%p34 bra $Lt_10_54786;
GPGPU-Sim PTX:    immediate post dominator      @  PC=0x1c78 (_1.ptx:1232) mov.f32 %f302, 0fbf800000;   // -1
GPGPU-Sim PTX: 50 (potential) branch divergence @  PC=0x1eb0 (_1.ptx:1312) @%p35 bra $Lt_10_55298;
GPGPU-Sim PTX:    immediate post dominator      @  PC=0x1ed8 (_1.ptx:1321) mov.f32 %f367, %f365;
GPGPU-Sim PTX: 51 (potential) branch divergence @  PC=0x1f98 (_1.ptx:1346) @!%p38 bra $Lt_10_55810;
GPGPU-Sim PTX:    immediate post dominator      @  PC=0x1fa8 (_1.ptx:1351) mov.f32 %f284, %f386;
GPGPU-Sim PTX: 52 (potential) branch divergence @  PC=0x2018 (_1.ptx:1365) @%p39 bra $Lt_10_56322;
GPGPU-Sim PTX:    immediate post dominator      @  PC=0x2038 (_1.ptx:1372) mov.f32 %f268, %f284;
GPGPU-Sim PTX: 53 (potential) branch divergence @  PC=0x2158 (_1.ptx:1419) @%p40 bra $L_10_42242;
GPGPU-Sim PTX:    immediate post dominator      @  PC=0x2170 (_1.ptx:1424) sub.s32 %r86, %r24, 1;
GPGPU-Sim PTX: 54 (potential) branch divergence @  PC=0x2168 (_1.ptx:1421) @%p41 bra $L_10_41474;
GPGPU-Sim PTX:    immediate post dominator      @  PC=0x2170 (_1.ptx:1424) sub.s32 %r86, %r24, 1;
GPGPU-Sim PTX: 55 (potential) branch divergence @  PC=0x2190 (_1.ptx:1428) @%p42 bra $Lt_10_56834;
GPGPU-Sim PTX:    immediate post dominator      @  PC=0x2288 (_1.ptx:1464) ld.global.u32 %r92, [%rd4+0];
GPGPU-Sim PTX: 56 (potential) branch divergence @  PC=0x2280 (_1.ptx:1461) @%p43 bra $Lt_10_57346;
GPGPU-Sim PTX:    immediate post dominator      @  PC=0x2288 (_1.ptx:1464) ld.global.u32 %r92, [%rd4+0];
GPGPU-Sim PTX: ... end of reconvergence points for _Z6renderPjP4Nodejjff
GPGPU-Sim PTX: ... done pre-decoding instructions for '_Z6renderPjP4Nodejjff'.
GPGPU-Sim PTX: instruction assembly for function '_ZN4dim3C1Ejjj'...   done.
GPGPU-Sim PTX: finding reconvergence points for '_ZN4dim3C1Ejjj'...
GPGPU-Sim PTX: Finding dominators for '_ZN4dim3C1Ejjj'...
GPGPU-Sim PTX: Finding immediate dominators for '_ZN4dim3C1Ejjj'...
GPGPU-Sim PTX: Finding postdominators for '_ZN4dim3C1Ejjj'...
GPGPU-Sim PTX: Finding immediate postdominators for '_ZN4dim3C1Ejjj'...
GPGPU-Sim PTX: pre-decoding instructions for '_ZN4dim3C1Ejjj'...
GPGPU-Sim PTX: reconvergence points for _ZN4dim3C1Ejjj...
GPGPU-Sim PTX: ... end of reconvergence points for _ZN4dim3C1Ejjj
GPGPU-Sim PTX: ... done pre-decoding instructions for '_ZN4dim3C1Ejjj'.
GPGPU-Sim PTX: finished parsing EMBEDDED .ptx file _1.ptx
Adding _cuobjdump_1.ptx with cubin handle 1
GPGPU-Sim PTX: extracting embedded .ptx to temporary file "_ptx_ezcob2"
Running: cat _ptx_ezcob2 | sed 's/.version 1.5/.version 1.4/' | sed 's/, texmode_independent//' | sed 's/\(\.extern \.const\[1\] .b8 \w\+\)\[\]/\1\[1\]/' | sed 's/const\[.\]/const\[0\]/g' > _ptx2_w1G3xW
GPGPU-Sim PTX: generating ptxinfo using "$CUDA_INSTALL_PATH/bin/ptxas --gpu-name=sm_20 -v _ptx2_w1G3xW --output-file  /dev/null 2> _ptx_ezcob2info"
GPGPU-Sim PTX: Kernel '_Z6renderPjP4Nodejjff' : regs=45, lmem=4, smem=0, cmem=180
GPGPU-Sim PTX: removing ptxinfo using "rm -f _ptx_ezcob2 _ptx2_w1G3xW _ptx_ezcob2info"
GPGPU-Sim PTX: loading globals with explicit initializers... 
GPGPU-Sim PTX: finished loading globals (0 bytes total).
GPGPU-Sim PTX: loading constants with explicit initializers...  done.
GPGPU-Sim PTX: __cudaRegisterVar: hostVar = 0x62fda0; deviceAddress = MView; deviceName = MView
GPGPU-Sim PTX: __cudaRegisterVar: Registering const memory space of 48 bytes
GPGPU-Sim PTX registering constant MView (48 bytes) to name mapping
GPGPU-Sim PTX: __cudaRegisterVar: hostVar = 0x62fde0; deviceAddress = cnode; deviceName = cnode
GPGPU-Sim PTX: __cudaRegisterVar: Registering const memory space of 160 bytes
GPGPU-Sim PTX registering constant cnode (160 bytes) to name mapping
GPGPU-Sim PTX: cudaMemcpyToSymbol: symbol = 0x62fde0
GPGPU-Sim PTX: starting gpgpu_ptx_sim_memcpy_symbol with hostVar 0x0x62fde0
GPGPU-Sim PTX: gpgpu_ptx_sim_memcpy_symbol: Found PTX symbol w/ hostVar=0x62fde0
GPGPU-Sim PTX: gpgpu_ptx_sim_memcpy_symbol: copying const memory 160 bytes  to  symbol cnode+0 @0x100 ...
GPGPU-Sim PTX: cudaMemcpyToSymbol: symbol = 0x62fda0
GPGPU-Sim PTX: starting gpgpu_ptx_sim_memcpy_symbol with hostVar 0x0x62fda0
GPGPU-Sim PTX: gpgpu_ptx_sim_memcpy_symbol: Found PTX symbol w/ hostVar=0x62fda0
GPGPU-Sim PTX: gpgpu_ptx_sim_memcpy_symbol: copying const memory 48 bytes  to  symbol MView+0 @0x200 ...

GPGPU-Sim PTX: cudaLaunch for 0x0x40ce13 (mode=performance simulation) on stream 0
GPGPU-Sim PTX: pushing kernel '_Z6renderPjP4Nodejjff' to stream 0, gridDim= (16,32,1) blockDim = (16,8,1) 
kernel '_Z6renderPjP4Nodejjff' transfer to GPU hardware scheduler
GPGPU-Sim uArch: Shader 1 bind to kernel 1 '_Z6renderPjP4Nodejjff'
GPGPU-Sim uArch: CTA/core = 5, limited by: regs
GPGPU-Sim uArch: core:  1, cta: 0 initialized @(1,0)
GPGPU-Sim uArch: Shader 2 bind to kernel 1 '_Z6renderPjP4Nodejjff'
GPGPU-Sim uArch: core:  2, cta: 0 initialized @(1,0)
GPGPU-Sim uArch: Shader 3 bind to kernel 1 '_Z6renderPjP4Nodejjff'
GPGPU-Sim uArch: core:  3, cta: 0 initialized @(1,0)
GPGPU-Sim uArch: Shader 4 bind to kernel 1 '_Z6renderPjP4Nodejjff'
GPGPU-Sim uArch: core:  4, cta: 0 initialized @(1,0)
GPGPU-Sim uArch: Shader 5 bind to kernel 1 '_Z6renderPjP4Nodejjff'
GPGPU-Sim uArch: core:  5, cta: 0 initialized @(1,0)
GPGPU-Sim uArch: Shader 6 bind to kernel 1 '_Z6renderPjP4Nodejjff'
GPGPU-Sim uArch: core:  6, cta: 0 initialized @(1,0)
GPGPU-Sim uArch: Shader 7 bind to kernel 1 '_Z6renderPjP4Nodejjff'
GPGPU-Sim uArch: core:  7, cta: 0 initialized @(1,0)
GPGPU-Sim uArch: Shader 8 bind to kernel 1 '_Z6renderPjP4Nodejjff'
GPGPU-Sim uArch: core:  8, cta: 0 initialized @(1,0)
GPGPU-Sim uArch: Shader 9 bind to kernel 1 '_Z6renderPjP4Nodejjff'
GPGPU-Sim uArch: core:  9, cta: 0 initialized @(1,0)
GPGPU-Sim uArch: Shader 10 bind to kernel 1 '_Z6renderPjP4Nodejjff'
GPGPU-Sim uArch: core: 10, cta: 0 initialized @(1,0)
GPGPU-Sim uArch: Shader 11 bind to kernel 1 '_Z6renderPjP4Nodejjff'
GPGPU-Sim uArch: core: 11, cta: 0 initialized @(1,0)
GPGPU-Sim uArch: Shader 12 bind to kernel 1 '_Z6renderPjP4Nodejjff'
GPGPU-Sim uArch: core: 12, cta: 0 initialized @(1,0)
GPGPU-Sim uArch: Shader 13 bind to kernel 1 '_Z6renderPjP4Nodejjff'
GPGPU-Sim uArch: core: 13, cta: 0 initialized @(1,0)
GPGPU-Sim uArch: Shader 14 bind to kernel 1 '_Z6renderPjP4Nodejjff'
GPGPU-Sim uArch: core: 14, cta: 0 initialized @(1,0)
GPGPU-Sim uArch: Shader 0 bind to kernel 1 '_Z6renderPjP4Nodejjff'
GPGPU-Sim uArch: core:  0, cta: 0 initialized @(1,0)
GPGPU-Sim uArch: core:  1, cta: 1 initialized @(2,0)
GPGPU-Sim uArch: core:  2, cta: 1 initialized @(2,0)
GPGPU-Sim uArch: core:  3, cta: 1 initialized @(2,0)
GPGPU-Sim uArch: core:  4, cta: 1 initialized @(2,0)
GPGPU-Sim uArch: core:  5, cta: 1 initialized @(2,0)
GPGPU-Sim uArch: core:  6, cta: 1 initialized @(2,0)
GPGPU-Sim uArch: core:  7, cta: 1 initialized @(2,0)
GPGPU-Sim uArch: core:  8, cta: 1 initialized @(2,0)
GPGPU-Sim uArch: core:  9, cta: 1 initialized @(2,0)
GPGPU-Sim uArch: core: 10, cta: 1 initialized @(2,0)
GPGPU-Sim uArch: core: 11, cta: 1 initialized @(2,0)
GPGPU-Sim uArch: core: 12, cta: 1 initialized @(2,0)
GPGPU-Sim uArch: core: 13, cta: 1 initialized @(2,0)
GPGPU-Sim uArch: core: 14, cta: 1 initialized @(2,0)
GPGPU-Sim uArch: core:  0, cta: 1 initialized @(2,0)
GPGPU-Sim uArch: core:  1, cta: 2 initialized @(3,0)
GPGPU-Sim uArch: core:  2, cta: 2 initialized @(3,0)
GPGPU-Sim uArch: core:  3, cta: 2 initialized @(3,0)
GPGPU-Sim uArch: core:  4, cta: 2 initialized @(3,0)
GPGPU-Sim uArch: core:  5, cta: 2 initialized @(3,0)
GPGPU-Sim uArch: core:  6, cta: 2 initialized @(3,0)
GPGPU-Sim uArch: core:  7, cta: 2 initialized @(3,0)
GPGPU-Sim uArch: core:  8, cta: 2 initialized @(3,0)
GPGPU-Sim uArch: core:  9, cta: 2 initialized @(3,0)
GPGPU-Sim uArch: core: 10, cta: 2 initialized @(3,0)
GPGPU-Sim uArch: core: 11, cta: 2 initialized @(3,0)
GPGPU-Sim uArch: core: 12, cta: 2 initialized @(3,0)
GPGPU-Sim uArch: core: 13, cta: 2 initialized @(3,0)
GPGPU-Sim uArch: core: 14, cta: 2 initialized @(3,0)
GPGPU-Sim uArch: core:  0, cta: 2 initialized @(3,0)
GPGPU-Sim uArch: core:  1, cta: 3 initialized @(4,0)
GPGPU-Sim uArch: core:  2, cta: 3 initialized @(4,0)
GPGPU-Sim uArch: core:  3, cta: 3 initialized @(4,0)
GPGPU-Sim uArch: core:  4, cta: 3 initialized @(4,0)
GPGPU-Sim uArch: core:  5, cta: 3 initialized @(4,0)
GPGPU-Sim uArch: core:  6, cta: 3 initialized @(4,0)
GPGPU-Sim uArch: core:  7, cta: 3 initialized @(4,0)
GPGPU-Sim uArch: core:  8, cta: 3 initialized @(4,0)
GPGPU-Sim uArch: core:  9, cta: 3 initialized @(4,0)
GPGPU-Sim uArch: core: 10, cta: 3 initialized @(4,0)
GPGPU-Sim uArch: core: 11, cta: 3 initialized @(4,0)
GPGPU-Sim uArch: core: 12, cta: 3 initialized @(4,0)
GPGPU-Sim uArch: core: 13, cta: 3 initialized @(4,0)
GPGPU-Sim uArch: core: 14, cta: 3 initialized @(4,0)
GPGPU-Sim uArch: core:  0, cta: 3 initialized @(4,0)
GPGPU-Sim uArch: core:  1, cta: 4 initialized @(5,0)
GPGPU-Sim uArch: core:  2, cta: 4 initialized @(5,0)
GPGPU-Sim uArch: core:  3, cta: 4 initialized @(5,0)
GPGPU-Sim uArch: core:  4, cta: 4 initialized @(5,0)
GPGPU-Sim uArch: core:  5, cta: 4 initialized @(5,0)
GPGPU-Sim uArch: core:  6, cta: 4 initialized @(5,0)
GPGPU-Sim uArch: core:  7, cta: 4 initialized @(5,0)
GPGPU-Sim uArch: core:  8, cta: 4 initialized @(5,0)
GPGPU-Sim uArch: core:  9, cta: 4 initialized @(5,0)
GPGPU-Sim uArch: core: 10, cta: 4 initialized @(5,0)
GPGPU-Sim uArch: core: 11, cta: 4 initialized @(5,0)
GPGPU-Sim uArch: core: 12, cta: 4 initialized @(5,0)
GPGPU-Sim uArch: core: 13, cta: 4 initialized @(5,0)
GPGPU-Sim uArch: core: 14, cta: 4 initialized @(5,0)
GPGPU-Sim uArch: core:  0, cta: 4 initialized @(5,0)
GPGPU-Sim uArch: cycles simulated: 500  inst.: 36224 (ipc=72.4) sim_rate=36224 (inst/sec) elapsed = 0:0:00:01 / Wed Mar  2 01:16:19 2016
GPGPU-Sim PTX: 100000 instructions simulated : ctaid=(13,1,0) tid=(15,1,0)
GPGPU-Sim uArch: cycles simulated: 2000  inst.: 110944 (ipc=55.5) sim_rate=55472 (inst/sec) elapsed = 0:0:00:02 / Wed Mar  2 01:16:20 2016
GPGPU-Sim PTX: 200000 instructions simulated : ctaid=(5,2,0) tid=(15,5,0)
GPGPU-Sim PTX: 300000 instructions simulated : ctaid=(1,1,0) tid=(15,1,0)
GPGPU-Sim uArch: cycles simulated: 4000  inst.: 332448 (ipc=83.1) sim_rate=110816 (inst/sec) elapsed = 0:0:00:03 / Wed Mar  2 01:16:21 2016
GPGPU-Sim PTX: 400000 instructions simulated : ctaid=(14,1,0) tid=(15,5,0)
GPGPU-Sim PTX: 500000 instructions simulated : ctaid=(2,3,0) tid=(15,1,0)
GPGPU-Sim PTX: 600000 instructions simulated : ctaid=(12,1,0) tid=(15,5,0)
GPGPU-Sim PTX: 700000 instructions simulated : ctaid=(8,1,0) tid=(15,7,0)
GPGPU-Sim PTX: 800000 instructions simulated : ctaid=(1,3,0) tid=(15,5,0)
GPGPU-Sim uArch: cycles simulated: 5500  inst.: 792608 (ipc=144.1) sim_rate=198152 (inst/sec) elapsed = 0:0:00:04 / Wed Mar  2 01:16:22 2016
GPGPU-Sim PTX: 900000 instructions simulated : ctaid=(11,1,0) tid=(15,7,0)
GPGPU-Sim PTX: 1000000 instructions simulated : ctaid=(10,2,0) tid=(15,3,0)
GPGPU-Sim PTX: 1100000 instructions simulated : ctaid=(1,4,0) tid=(15,3,0)
GPGPU-Sim PTX: 1200000 instructions simulated : ctaid=(7,2,0) tid=(15,1,0)
GPGPU-Sim PTX: 1300000 instructions simulated : ctaid=(0,1,0) tid=(15,7,0)
GPGPU-Sim PTX: 1400000 instructions simulated : ctaid=(14,0,0) tid=(15,5,0)
GPGPU-Sim uArch: cycles simulated: 7000  inst.: 1401792 (ipc=200.3) sim_rate=280358 (inst/sec) elapsed = 0:0:00:05 / Wed Mar  2 01:16:23 2016
GPGPU-Sim PTX: 1500000 instructions simulated : ctaid=(7,1,0) tid=(15,5,0)
GPGPU-Sim PTX: 1600000 instructions simulated : ctaid=(2,4,0) tid=(15,7,0)
GPGPU-Sim PTX: 1700000 instructions simulated : ctaid=(8,4,0) tid=(15,3,0)
GPGPU-Sim PTX: 1800000 instructions simulated : ctaid=(2,1,0) tid=(15,5,0)
GPGPU-Sim PTX: 1900000 instructions simulated : ctaid=(1,2,0) tid=(15,5,0)
GPGPU-Sim PTX: 2000000 instructions simulated : ctaid=(11,3,0) tid=(15,3,0)
GPGPU-Sim uArch: cycles simulated: 8000  inst.: 2051712 (ipc=256.5) sim_rate=341952 (inst/sec) elapsed = 0:0:00:06 / Wed Mar  2 01:16:24 2016
GPGPU-Sim PTX: 2100000 instructions simulated : ctaid=(5,1,0) tid=(15,3,0)
GPGPU-Sim PTX: 2200000 instructions simulated : ctaid=(9,1,0) tid=(15,5,0)
GPGPU-Sim PTX: 2300000 instructions simulated : ctaid=(12,1,0) tid=(15,5,0)
GPGPU-Sim PTX: 2400000 instructions simulated : ctaid=(12,1,0) tid=(15,7,0)
GPGPU-Sim PTX: 2500000 instructions simulated : ctaid=(15,2,0) tid=(15,7,0)
GPGPU-Sim PTX: 2600000 instructions simulated : ctaid=(10,4,0) tid=(15,7,0)
GPGPU-Sim PTX: 2700000 instructions simulated : ctaid=(14,2,0) tid=(15,7,0)
GPGPU-Sim PTX: 2800000 instructions simulated : ctaid=(0,0,0) tid=(15,3,0)
GPGPU-Sim uArch: cycles simulated: 9000  inst.: 2802176 (ipc=311.4) sim_rate=400310 (inst/sec) elapsed = 0:0:00:07 / Wed Mar  2 01:16:25 2016
GPGPU-Sim PTX: 2900000 instructions simulated : ctaid=(2,0,0) tid=(15,7,0)
GPGPU-Sim PTX: 3000000 instructions simulated : ctaid=(6,1,0) tid=(15,3,0)
GPGPU-Sim PTX: 3100000 instructions simulated : ctaid=(3,4,0) tid=(15,3,0)
GPGPU-Sim PTX: 3200000 instructions simulated : ctaid=(4,4,0) tid=(15,1,0)
GPGPU-Sim PTX: 3300000 instructions simulated : ctaid=(11,2,0) tid=(15,5,0)
GPGPU-Sim PTX: 3400000 instructions simulated : ctaid=(7,3,0) tid=(15,3,0)
GPGPU-Sim uArch: cycles simulated: 10000  inst.: 3340416 (ipc=334.0) sim_rate=417552 (inst/sec) elapsed = 0:0:00:08 / Wed Mar  2 01:16:26 2016
GPGPU-Sim PTX: 3500000 instructions simulated : ctaid=(8,2,0) tid=(15,5,0)
GPGPU-Sim PTX: 3600000 instructions simulated : ctaid=(13,3,0) tid=(15,3,0)
GPGPU-Sim PTX: 3700000 instructions simulated : ctaid=(4,3,0) tid=(15,5,0)
GPGPU-Sim PTX: 3800000 instructions simulated : ctaid=(12,0,0) tid=(15,3,0)
GPGPU-Sim PTX: 3900000 instructions simulated : ctaid=(4,3,0) tid=(15,3,0)
GPGPU-Sim uArch: cycles simulated: 11500  inst.: 3834848 (ipc=333.5) sim_rate=426094 (inst/sec) elapsed = 0:0:00:09 / Wed Mar  2 01:16:27 2016
GPGPU-Sim PTX: 4000000 instructions simulated : ctaid=(10,2,0) tid=(15,3,0)
GPGPU-Sim PTX: 4100000 instructions simulated : ctaid=(7,4,0) tid=(15,5,0)
GPGPU-Sim PTX: 4200000 instructions simulated : ctaid=(8,4,0) tid=(15,3,0)
GPGPU-Sim PTX: 4300000 instructions simulated : ctaid=(0,0,0) tid=(15,7,0)
GPGPU-Sim PTX: 4400000 instructions simulated : ctaid=(2,2,0) tid=(15,5,0)
GPGPU-Sim uArch: cycles simulated: 13000  inst.: 4321024 (ipc=332.4) sim_rate=432102 (inst/sec) elapsed = 0:0:00:10 / Wed Mar  2 01:16:28 2016
GPGPU-Sim PTX: 4500000 instructions simulated : ctaid=(11,1,0) tid=(15,3,0)
GPGPU-Sim PTX: 4600000 instructions simulated : ctaid=(1,0,0) tid=(4,0,0)
GPGPU-Sim PTX: 4700000 instructions simulated : ctaid=(11,0,0) tid=(15,7,0)
GPGPU-Sim PTX: 4800000 instructions simulated : ctaid=(12,3,0) tid=(15,4,0)
GPGPU-Sim PTX: 4900000 instructions simulated : ctaid=(8,1,0) tid=(15,6,0)
GPGPU-Sim PTX: 5000000 instructions simulated : ctaid=(15,1,0) tid=(15,4,0)
GPGPU-Sim uArch: cycles simulated: 14000  inst.: 4932752 (ipc=352.3) sim_rate=448432 (inst/sec) elapsed = 0:0:00:11 / Wed Mar  2 01:16:29 2016
GPGPU-Sim PTX: 5100000 instructions simulated : ctaid=(3,1,0) tid=(15,0,0)
GPGPU-Sim PTX: 5200000 instructions simulated : ctaid=(2,2,0) tid=(15,0,0)
GPGPU-Sim PTX: 5300000 instructions simulated : ctaid=(12,3,0) tid=(15,0,0)
GPGPU-Sim PTX: 5400000 instructions simulated : ctaid=(8,0,0) tid=(15,4,0)
GPGPU-Sim PTX: 5500000 instructions simulated : ctaid=(15,2,0) tid=(1,1,0)
GPGPU-Sim PTX: 5600000 instructions simulated : ctaid=(14,2,0) tid=(2,4,0)
GPGPU-Sim PTX: 5700000 instructions simulated : ctaid=(12,0,0) tid=(11,0,0)
GPGPU-Sim PTX: 5800000 instructions simulated : ctaid=(5,4,0) tid=(5,3,0)
GPGPU-Sim uArch: cycles simulated: 15000  inst.: 5678696 (ipc=378.6) sim_rate=473224 (inst/sec) elapsed = 0:0:00:12 / Wed Mar  2 01:16:30 2016
GPGPU-Sim PTX: 5900000 instructions simulated : ctaid=(2,4,0) tid=(11,1,0)
GPGPU-Sim PTX: 6000000 instructions simulated : ctaid=(1,2,0) tid=(2,7,0)
GPGPU-Sim PTX: 6100000 instructions simulated : ctaid=(12,3,0) tid=(11,7,0)
GPGPU-Sim PTX: 6200000 instructions simulated : ctaid=(0,2,0) tid=(11,3,0)
GPGPU-Sim PTX: 6300000 instructions simulated : ctaid=(12,0,0) tid=(11,5,0)
GPGPU-Sim uArch: cycles simulated: 16500  inst.: 6144100 (ipc=372.4) sim_rate=472623 (inst/sec) elapsed = 0:0:00:13 / Wed Mar  2 01:16:31 2016
GPGPU-Sim PTX: 6400000 instructions simulated : ctaid=(8,4,0) tid=(11,5,0)
GPGPU-Sim PTX: 6500000 instructions simulated : ctaid=(5,0,0) tid=(15,3,0)
GPGPU-Sim PTX: 6600000 instructions simulated : ctaid=(12,3,0) tid=(11,7,0)
GPGPU-Sim PTX: 6700000 instructions simulated : ctaid=(10,2,0) tid=(11,1,0)
GPGPU-Sim PTX: 6800000 instructions simulated : ctaid=(1,1,0) tid=(11,1,0)
GPGPU-Sim PTX: 6900000 instructions simulated : ctaid=(8,2,0) tid=(11,3,0)
GPGPU-Sim uArch: cycles simulated: 18500  inst.: 6724900 (ipc=363.5) sim_rate=480350 (inst/sec) elapsed = 0:0:00:14 / Wed Mar  2 01:16:32 2016
GPGPU-Sim PTX: 7000000 instructions simulated : ctaid=(7,0,0) tid=(11,5,0)
GPGPU-Sim PTX: 7100000 instructions simulated : ctaid=(6,0,0) tid=(11,3,0)
GPGPU-Sim PTX: 7200000 instructions simulated : ctaid=(13,2,0) tid=(11,3,0)
GPGPU-Sim uArch: cycles simulated: 19500  inst.: 7079460 (ipc=363.0) sim_rate=471964 (inst/sec) elapsed = 0:0:00:15 / Wed Mar  2 01:16:33 2016
GPGPU-Sim PTX: 7300000 instructions simulated : ctaid=(4,2,0) tid=(11,5,0)
GPGPU-Sim PTX: 7400000 instructions simulated : ctaid=(15,0,0) tid=(11,7,0)
GPGPU-Sim PTX: 7500000 instructions simulated : ctaid=(3,0,0) tid=(11,7,0)
GPGPU-Sim PTX: 7600000 instructions simulated : ctaid=(0,1,0) tid=(11,5,0)
GPGPU-Sim PTX: 7700000 instructions simulated : ctaid=(6,1,0) tid=(11,3,0)
GPGPU-Sim PTX: 7800000 instructions simulated : ctaid=(9,4,0) tid=(11,3,0)
GPGPU-Sim uArch: cycles simulated: 21000  inst.: 7607940 (ipc=362.3) sim_rate=475496 (inst/sec) elapsed = 0:0:00:16 / Wed Mar  2 01:16:34 2016
GPGPU-Sim PTX: 7900000 instructions simulated : ctaid=(7,4,0) tid=(11,5,0)
GPGPU-Sim PTX: 8000000 instructions simulated : ctaid=(13,1,0) tid=(11,7,0)
GPGPU-Sim PTX: 8100000 instructions simulated : ctaid=(5,2,0) tid=(11,1,0)
GPGPU-Sim PTX: 8200000 instructions simulated : ctaid=(7,3,0) tid=(11,1,0)
GPGPU-Sim PTX: 8300000 instructions simulated : ctaid=(0,4,0) tid=(11,1,0)
GPGPU-Sim uArch: cycles simulated: 22500  inst.: 8147236 (ipc=362.1) sim_rate=479249 (inst/sec) elapsed = 0:0:00:17 / Wed Mar  2 01:16:35 2016
GPGPU-Sim PTX: 8400000 instructions simulated : ctaid=(8,2,0) tid=(11,1,0)
GPGPU-Sim PTX: 8500000 instructions simulated : ctaid=(1,4,0) tid=(11,5,0)
GPGPU-Sim PTX: 8600000 instructions simulated : ctaid=(9,3,0) tid=(11,3,0)
GPGPU-Sim PTX: 8700000 instructions simulated : ctaid=(5,2,0) tid=(0,6,0)
GPGPU-Sim PTX: 8800000 instructions simulated : ctaid=(1,0,0) tid=(10,6,0)
GPGPU-Sim PTX: 8900000 instructions simulated : ctaid=(12,0,0) tid=(11,3,0)
GPGPU-Sim PTX: 9000000 instructions simulated : ctaid=(8,4,0) tid=(9,1,0)
GPGPU-Sim PTX: 9100000 instructions simulated : ctaid=(13,2,0) tid=(4,7,0)
GPGPU-Sim uArch: cycles simulated: 23500  inst.: 8940330 (ipc=380.4) sim_rate=496685 (inst/sec) elapsed = 0:0:00:18 / Wed Mar  2 01:16:36 2016
GPGPU-Sim PTX: 9200000 instructions simulated : ctaid=(7,0,0) tid=(6,7,0)
GPGPU-Sim PTX: 9300000 instructions simulated : ctaid=(7,1,0) tid=(7,1,0)
GPGPU-Sim PTX: 9400000 instructions simulated : ctaid=(13,2,0) tid=(12,3,0)
GPGPU-Sim PTX: 9500000 instructions simulated : ctaid=(9,4,0) tid=(9,6,0)
GPGPU-Sim PTX: 9600000 instructions simulated : ctaid=(12,2,0) tid=(9,1,0)
GPGPU-Sim PTX: 9700000 instructions simulated : ctaid=(6,2,0) tid=(9,3,0)
GPGPU-Sim PTX: 9800000 instructions simulated : ctaid=(10,2,0) tid=(2,7,0)
GPGPU-Sim PTX: 9900000 instructions simulated : ctaid=(7,3,0) tid=(8,2,0)
GPGPU-Sim uArch: cycles simulated: 24500  inst.: 9679506 (ipc=395.1) sim_rate=509447 (inst/sec) elapsed = 0:0:00:19 / Wed Mar  2 01:16:37 2016
GPGPU-Sim PTX: 10000000 instructions simulated : ctaid=(8,2,0) tid=(10,1,0)
GPGPU-Sim PTX: 10100000 instructions simulated : ctaid=(7,4,0) tid=(2,6,0)
GPGPU-Sim PTX: 10200000 instructions simulated : ctaid=(0,0,0) tid=(0,1,0)
GPGPU-Sim PTX: 10300000 instructions simulated : ctaid=(6,4,0) tid=(5,1,0)
GPGPU-Sim uArch: cycles simulated: 26000  inst.: 10053156 (ipc=386.7) sim_rate=502657 (inst/sec) elapsed = 0:0:00:20 / Wed Mar  2 01:16:38 2016
GPGPU-Sim PTX: 10400000 instructions simulated : ctaid=(1,2,0) tid=(9,4,0)
GPGPU-Sim uArch: Shader 6 finished CTA #2 (26262,0), 4 CTAs running
GPGPU-Sim uArch: core:  6, cta: 2 initialized @(26263,0)
GPGPU-Sim uArch: Shader 6 finished CTA #3 (26303,0), 4 CTAs running
GPGPU-Sim uArch: Shader 14 finished CTA #0 (26303,0), 4 CTAs running
GPGPU-Sim uArch: core: 14, cta: 0 initialized @(26304,0)
GPGPU-Sim uArch: core:  6, cta: 3 initialized @(26304,0)
GPGPU-Sim uArch: Shader 8 finished CTA #3 (26317,0), 4 CTAs running
GPGPU-Sim uArch: core:  8, cta: 3 initialized @(26318,0)
GPGPU-Sim uArch: Shader 2 finished CTA #1 (26319,0), 4 CTAs running
GPGPU-Sim uArch: core:  2, cta: 1 initialized @(26320,0)
GPGPU-Sim uArch: Shader 0 finished CTA #1 (26323,0), 4 CTAs running
GPGPU-Sim uArch: core:  0, cta: 1 initialized @(26324,0)
GPGPU-Sim uArch: Shader 0 finished CTA #0 (26337,0), 4 CTAs running
GPGPU-Sim uArch: core:  0, cta: 0 initialized @(26338,0)
GPGPU-Sim uArch: Shader 6 finished CTA #4 (26345,0), 4 CTAs running
GPGPU-Sim uArch: core:  6, cta: 4 initialized @(26346,0)
GPGPU-Sim uArch: Shader 9 finished CTA #3 (26353,0), 4 CTAs running
GPGPU-Sim uArch: core:  9, cta: 3 initialized @(26354,0)
GPGPU-Sim uArch: Shader 0 finished CTA #2 (26373,0), 4 CTAs running
GPGPU-Sim uArch: Shader 1 finished CTA #0 (26373,0), 4 CTAs running
GPGPU-Sim uArch: Shader 2 finished CTA #0 (26373,0), 4 CTAs running
GPGPU-Sim uArch: Shader 9 finished CTA #4 (26373,0), 4 CTAs running
GPGPU-Sim uArch: core:  0, cta: 2 initialized @(26374,0)
GPGPU-Sim uArch: core:  1, cta: 0 initialized @(26374,0)
GPGPU-Sim uArch: core:  2, cta: 0 initialized @(26374,0)
GPGPU-Sim uArch: core:  9, cta: 4 initialized @(26374,0)
GPGPU-Sim uArch: Shader 1 finished CTA #1 (26383,0), 4 CTAs running
GPGPU-Sim uArch: core:  1, cta: 1 initialized @(26384,0)
GPGPU-Sim uArch: Shader 8 finished CTA #4 (26385,0), 4 CTAs running
GPGPU-Sim uArch: core:  8, cta: 4 initialized @(26386,0)
GPGPU-Sim uArch: Shader 1 finished CTA #2 (26401,0), 4 CTAs running
GPGPU-Sim uArch: core:  1, cta: 2 initialized @(26402,0)
GPGPU-Sim uArch: Shader 2 finished CTA #2 (26405,0), 4 CTAs running
GPGPU-Sim uArch: core:  2, cta: 2 initialized @(26406,0)
GPGPU-Sim uArch: Shader 8 finished CTA #2 (26410,0), 4 CTAs running
GPGPU-Sim uArch: core:  8, cta: 2 initialized @(26411,0)
GPGPU-Sim uArch: Shader 1 finished CTA #3 (26419,0), 4 CTAs running
GPGPU-Sim uArch: core:  1, cta: 3 initialized @(26420,0)
GPGPU-Sim uArch: Shader 0 finished CTA #3 (26447,0), 4 CTAs running
GPGPU-Sim uArch: core:  0, cta: 3 initialized @(26448,0)
GPGPU-Sim uArch: Shader 2 finished CTA #3 (26459,0), 4 CTAs running
GPGPU-Sim uArch: core:  2, cta: 3 initialized @(26460,0)
GPGPU-Sim uArch: Shader 3 finished CTA #0 (26463,0), 4 CTAs running
GPGPU-Sim uArch: core:  3, cta: 0 initialized @(26464,0)
GPGPU-Sim uArch: Shader 4 finished CTA #1 (26467,0), 4 CTAs running
GPGPU-Sim uArch: core:  4, cta: 1 initialized @(26468,0)
GPGPU-Sim uArch: Shader 4 finished CTA #2 (26478,0), 4 CTAs running
GPGPU-Sim uArch: core:  4, cta: 2 initialized @(26479,0)
GPGPU-Sim uArch: Shader 3 finished CTA #1 (26484,0), 4 CTAs running
GPGPU-Sim uArch: core:  3, cta: 1 initialized @(26485,0)
GPGPU-Sim uArch: Shader 5 finished CTA #2 (26491,0), 4 CTAs running
GPGPU-Sim uArch: core:  5, cta: 2 initialized @(26492,0)
GPGPU-Sim uArch: Shader 0 finished CTA #4 (26497,0), 4 CTAs running
GPGPU-Sim uArch: core:  0, cta: 4 initialized @(26498,0)
GPGPU-Sim uArch: Shader 5 finished CTA #3 (26499,0), 4 CTAs running
GPGPU-Sim uArch: core:  5, cta: 3 initialized @(26500,0)
GPGPU-Sim PTX: 10500000 instructions simulated : ctaid=(7,4,0) tid=(10,6,0)
GPGPU-Sim uArch: Shader 7 finished CTA #3 (26523,0), 4 CTAs running
GPGPU-Sim uArch: core:  7, cta: 3 initialized @(26524,0)
GPGPU-Sim uArch: Shader 4 finished CTA #3 (26527,0), 4 CTAs running
GPGPU-Sim uArch: core:  4, cta: 3 initialized @(26528,0)
GPGPU-Sim uArch: Shader 7 finished CTA #4 (26549,0), 4 CTAs running
GPGPU-Sim uArch: core:  7, cta: 4 initialized @(26550,0)
GPGPU-Sim uArch: Shader 3 finished CTA #4 (26602,0), 4 CTAs running
GPGPU-Sim uArch: core:  3, cta: 4 initialized @(26603,0)
GPGPU-Sim uArch: Shader 1 finished CTA #4 (26616,0), 4 CTAs running
GPGPU-Sim uArch: core:  1, cta: 4 initialized @(26617,0)
GPGPU-Sim uArch: Shader 2 finished CTA #4 (26626,0), 4 CTAs running
GPGPU-Sim uArch: core:  2, cta: 4 initialized @(26627,0)
GPGPU-Sim uArch: Shader 5 finished CTA #4 (26627,0), 4 CTAs running
GPGPU-Sim uArch: core:  5, cta: 4 initialized @(26628,0)
GPGPU-Sim uArch: Shader 4 finished CTA #4 (26649,0), 4 CTAs running
GPGPU-Sim uArch: core:  4, cta: 4 initialized @(26650,0)
GPGPU-Sim uArch: Shader 3 finished CTA #2 (26681,0), 4 CTAs running
GPGPU-Sim uArch: core:  3, cta: 2 initialized @(26682,0)
GPGPU-Sim uArch: Shader 3 finished CTA #3 (26692,0), 4 CTAs running
GPGPU-Sim uArch: core:  3, cta: 3 initialized @(26693,0)
GPGPU-Sim uArch: Shader 10 finished CTA #4 (26712,0), 4 CTAs running
GPGPU-Sim uArch: core: 10, cta: 4 initialized @(26713,0)
GPGPU-Sim PTX: 10600000 instructions simulated : ctaid=(7,0,0) tid=(2,2,0)
GPGPU-Sim uArch: cycles simulated: 27000  inst.: 10374260 (ipc=384.2) sim_rate=494012 (inst/sec) elapsed = 0:0:00:21 / Wed Mar  2 01:16:39 2016
GPGPU-Sim PTX: 10700000 instructions simulated : ctaid=(10,6,0) tid=(9,0,0)
GPGPU-Sim PTX: 10800000 instructions simulated : ctaid=(1,6,0) tid=(1,4,0)
GPGPU-Sim PTX: 10900000 instructions simulated : ctaid=(1,7,0) tid=(7,1,0)
GPGPU-Sim PTX: 11000000 instructions simulated : ctaid=(9,6,0) tid=(3,2,0)
GPGPU-Sim PTX: 11100000 instructions simulated : ctaid=(7,5,0) tid=(7,3,0)
GPGPU-Sim PTX: 11200000 instructions simulated : ctaid=(12,5,0) tid=(15,3,0)
GPGPU-Sim uArch: cycles simulated: 28500  inst.: 10937033 (ipc=383.8) sim_rate=497137 (inst/sec) elapsed = 0:0:00:22 / Wed Mar  2 01:16:40 2016
GPGPU-Sim PTX: 11300000 instructions simulated : ctaid=(8,5,0) tid=(6,6,0)
GPGPU-Sim PTX: 11400000 instructions simulated : ctaid=(15,6,0) tid=(0,4,0)
GPGPU-Sim PTX: 11500000 instructions simulated : ctaid=(15,6,0) tid=(1,0,0)
GPGPU-Sim PTX: 11600000 instructions simulated : ctaid=(13,4,0) tid=(6,6,0)
GPGPU-Sim PTX: 11700000 instructions simulated : ctaid=(8,6,0) tid=(8,7,0)
GPGPU-Sim uArch: cycles simulated: 29500  inst.: 11458215 (ipc=388.4) sim_rate=498183 (inst/sec) elapsed = 0:0:00:23 / Wed Mar  2 01:16:41 2016
GPGPU-Sim PTX: 11800000 instructions simulated : ctaid=(8,1,0) tid=(0,1,0)
GPGPU-Sim PTX: 11900000 instructions simulated : ctaid=(11,1,0) tid=(6,5,0)
GPGPU-Sim PTX: 12000000 instructions simulated : ctaid=(3,6,0) tid=(7,3,0)
GPGPU-Sim PTX: 12100000 instructions simulated : ctaid=(13,5,0) tid=(1,7,0)
GPGPU-Sim PTX: 12200000 instructions simulated : ctaid=(9,1,0) tid=(15,5,0)
GPGPU-Sim PTX: 12300000 instructions simulated : ctaid=(11,5,0) tid=(3,6,0)
GPGPU-Sim uArch: cycles simulated: 30500  inst.: 12046511 (ipc=395.0) sim_rate=501937 (inst/sec) elapsed = 0:0:00:24 / Wed Mar  2 01:16:42 2016
GPGPU-Sim uArch: Shader 14 finished CTA #2 (30539,0), 4 CTAs running
GPGPU-Sim uArch: core: 14, cta: 2 initialized @(30540,0)
GPGPU-Sim PTX: 12400000 instructions simulated : ctaid=(13,4,0) tid=(9,6,0)
GPGPU-Sim PTX: 12500000 instructions simulated : ctaid=(4,6,0) tid=(11,6,0)
GPGPU-Sim PTX: 12600000 instructions simulated : ctaid=(4,6,0) tid=(10,2,0)
GPGPU-Sim PTX: 12700000 instructions simulated : ctaid=(12,0,0) tid=(2,4,0)
GPGPU-Sim PTX: 12800000 instructions simulated : ctaid=(8,1,0) tid=(1,3,0)
GPGPU-Sim PTX: 12900000 instructions simulated : ctaid=(11,4,0) tid=(14,1,0)
GPGPU-Sim uArch: Shader 7 finished CTA #2 (31383,0), 4 CTAs running
GPGPU-Sim uArch: core:  7, cta: 2 initialized @(31384,0)
GPGPU-Sim uArch: cycles simulated: 31500  inst.: 12630617 (ipc=401.0) sim_rate=505224 (inst/sec) elapsed = 0:0:00:25 / Wed Mar  2 01:16:43 2016
GPGPU-Sim PTX: 13000000 instructions simulated : ctaid=(6,6,0) tid=(15,4,0)
GPGPU-Sim PTX: 13100000 instructions simulated : ctaid=(10,0,0) tid=(9,2,0)
GPGPU-Sim PTX: 13200000 instructions simulated : ctaid=(15,6,0) tid=(10,4,0)
GPGPU-Sim PTX: 13300000 instructions simulated : ctaid=(3,6,0) tid=(14,1,0)
GPGPU-Sim PTX: 13400000 instructions simulated : ctaid=(9,6,0) tid=(15,7,0)
GPGPU-Sim PTX: 13500000 instructions simulated : ctaid=(8,3,0) tid=(14,5,0)
GPGPU-Sim uArch: cycles simulated: 32500  inst.: 13148225 (ipc=404.6) sim_rate=505700 (inst/sec) elapsed = 0:0:00:26 / Wed Mar  2 01:16:44 2016
GPGPU-Sim PTX: 13600000 instructions simulated : ctaid=(3,6,0) tid=(2,0,0)
GPGPU-Sim PTX: 13700000 instructions simulated : ctaid=(9,6,0) tid=(15,3,0)
GPGPU-Sim PTX: 13800000 instructions simulated : ctaid=(4,5,0) tid=(6,7,0)
GPGPU-Sim PTX: 13900000 instructions simulated : ctaid=(3,5,0) tid=(6,1,0)
GPGPU-Sim PTX: 14000000 instructions simulated : ctaid=(0,7,0) tid=(15,4,0)
GPGPU-Sim uArch: cycles simulated: 33500  inst.: 13660709 (ipc=407.8) sim_rate=505952 (inst/sec) elapsed = 0:0:00:27 / Wed Mar  2 01:16:45 2016
GPGPU-Sim PTX: 14100000 instructions simulated : ctaid=(9,0,0) tid=(5,7,0)
GPGPU-Sim PTX: 14200000 instructions simulated : ctaid=(7,2,0) tid=(4,0,0)
GPGPU-Sim PTX: 14300000 instructions simulated : ctaid=(4,1,0) tid=(3,2,0)
GPGPU-Sim PTX: 14400000 instructions simulated : ctaid=(3,7,0) tid=(9,7,0)
GPGPU-Sim PTX: 14500000 instructions simulated : ctaid=(13,5,0) tid=(2,4,0)
GPGPU-Sim PTX: 14600000 instructions simulated : ctaid=(9,0,0) tid=(9,6,0)
GPGPU-Sim uArch: cycles simulated: 34500  inst.: 14210042 (ipc=411.9) sim_rate=507501 (inst/sec) elapsed = 0:0:00:28 / Wed Mar  2 01:16:46 2016
GPGPU-Sim PTX: 14700000 instructions simulated : ctaid=(7,4,0) tid=(4,2,0)
GPGPU-Sim PTX: 14800000 instructions simulated : ctaid=(6,5,0) tid=(6,0,0)
GPGPU-Sim PTX: 14900000 instructions simulated : ctaid=(8,4,0) tid=(14,6,0)
GPGPU-Sim uArch: cycles simulated: 35000  inst.: 14524915 (ipc=415.0) sim_rate=500859 (inst/sec) elapsed = 0:0:00:29 / Wed Mar  2 01:16:47 2016
GPGPU-Sim PTX: 15000000 instructions simulated : ctaid=(9,5,0) tid=(9,1,0)
GPGPU-Sim PTX: 15100000 instructions simulated : ctaid=(4,0,0) tid=(6,3,0)
GPGPU-Sim PTX: 15200000 instructions simulated : ctaid=(4,6,0) tid=(10,2,0)
GPGPU-Sim PTX: 15300000 instructions simulated : ctaid=(2,6,0) tid=(0,6,0)
GPGPU-Sim PTX: 15400000 instructions simulated : ctaid=(7,2,0) tid=(15,7,0)
GPGPU-Sim PTX: 15500000 instructions simulated : ctaid=(5,6,0) tid=(7,6,0)
GPGPU-Sim uArch: cycles simulated: 36000  inst.: 15090263 (ipc=419.2) sim_rate=503008 (inst/sec) elapsed = 0:0:00:30 / Wed Mar  2 01:16:48 2016
GPGPU-Sim PTX: 15600000 instructions simulated : ctaid=(3,5,0) tid=(11,0,0)
GPGPU-Sim PTX: 15700000 instructions simulated : ctaid=(8,2,0) tid=(14,7,0)
GPGPU-Sim PTX: 15800000 instructions simulated : ctaid=(11,5,0) tid=(11,0,0)
GPGPU-Sim uArch: Shader 14 finished CTA #3 (36866,0), 4 CTAs running
GPGPU-Sim uArch: core: 14, cta: 3 initialized @(36867,0)
GPGPU-Sim PTX: 15900000 instructions simulated : ctaid=(2,7,0) tid=(1,4,0)
GPGPU-Sim uArch: cycles simulated: 37000  inst.: 15537576 (ipc=419.9) sim_rate=501212 (inst/sec) elapsed = 0:0:00:31 / Wed Mar  2 01:16:49 2016
GPGPU-Sim PTX: 16000000 instructions simulated : ctaid=(7,2,0) tid=(2,3,0)
GPGPU-Sim PTX: 16100000 instructions simulated : ctaid=(8,0,0) tid=(6,0,0)
GPGPU-Sim PTX: 16200000 instructions simulated : ctaid=(1,5,0) tid=(14,3,0)
GPGPU-Sim uArch: Shader 13 finished CTA #2 (37625,0), 4 CTAs running
GPGPU-Sim uArch: core: 13, cta: 2 initialized @(37626,0)
GPGPU-Sim PTX: 16300000 instructions simulated : ctaid=(7,3,0) tid=(13,0,0)
GPGPU-Sim PTX: 16400000 instructions simulated : ctaid=(9,4,0) tid=(3,5,0)
GPGPU-Sim uArch: cycles simulated: 38000  inst.: 15995045 (ipc=420.9) sim_rate=499845 (inst/sec) elapsed = 0:0:00:32 / Wed Mar  2 01:16:50 2016
GPGPU-Sim PTX: 16500000 instructions simulated : ctaid=(6,3,0) tid=(13,4,0)
GPGPU-Sim PTX: 16600000 instructions simulated : ctaid=(3,7,0) tid=(6,1,0)
GPGPU-Sim PTX: 16700000 instructions simulated : ctaid=(5,7,0) tid=(8,0,0)
GPGPU-Sim PTX: 16800000 instructions simulated : ctaid=(7,4,0) tid=(9,7,0)
GPGPU-Sim uArch: cycles simulated: 39000  inst.: 16440314 (ipc=421.5) sim_rate=498191 (inst/sec) elapsed = 0:0:00:33 / Wed Mar  2 01:16:51 2016
GPGPU-Sim PTX: 16900000 instructions simulated : ctaid=(12,4,0) tid=(3,0,0)
GPGPU-Sim PTX: 17000000 instructions simulated : ctaid=(4,5,0) tid=(1,5,0)
GPGPU-Sim PTX: 17100000 instructions simulated : ctaid=(5,1,0) tid=(5,3,0)
GPGPU-Sim uArch: Shader 5 finished CTA #1 (39630,0), 4 CTAs running
GPGPU-Sim uArch: core:  5, cta: 1 initialized @(39631,0)
GPGPU-Sim PTX: 17200000 instructions simulated : ctaid=(11,0,0) tid=(12,7,0)
GPGPU-Sim PTX: 17300000 instructions simulated : ctaid=(9,5,0) tid=(5,4,0)
GPGPU-Sim uArch: cycles simulated: 40000  inst.: 16908546 (ipc=422.7) sim_rate=497310 (inst/sec) elapsed = 0:0:00:34 / Wed Mar  2 01:16:52 2016
GPGPU-Sim PTX: 17400000 instructions simulated : ctaid=(2,6,0) tid=(10,2,0)
GPGPU-Sim PTX: 17500000 instructions simulated : ctaid=(7,6,0) tid=(15,6,0)
GPGPU-Sim PTX: 17600000 instructions simulated : ctaid=(12,4,0) tid=(1,1,0)
GPGPU-Sim uArch: Shader 4 finished CTA #0 (40544,0), 4 CTAs running
GPGPU-Sim uArch: core:  4, cta: 0 initialized @(40545,0)
GPGPU-Sim PTX: 17700000 instructions simulated : ctaid=(11,4,0) tid=(15,3,0)
GPGPU-Sim PTX: 17800000 instructions simulated : ctaid=(7,2,0) tid=(1,5,0)
GPGPU-Sim uArch: cycles simulated: 41000  inst.: 17355447 (ipc=423.3) sim_rate=495869 (inst/sec) elapsed = 0:0:00:35 / Wed Mar  2 01:16:53 2016
GPGPU-Sim PTX: 17900000 instructions simulated : ctaid=(6,1,0) tid=(14,3,0)
GPGPU-Sim PTX: 18000000 instructions simulated : ctaid=(1,7,0) tid=(7,6,0)
GPGPU-Sim uArch: Shader 11 finished CTA #4 (41440,0), 4 CTAs running
GPGPU-Sim uArch: core: 11, cta: 4 initialized @(41441,0)
GPGPU-Sim PTX: 18100000 instructions simulated : ctaid=(10,0,0) tid=(2,2,0)
GPGPU-Sim uArch: Shader 12 finished CTA #3 (41609,0), 4 CTAs running
GPGPU-Sim uArch: core: 12, cta: 3 initialized @(41610,0)
GPGPU-Sim PTX: 18200000 instructions simulated : ctaid=(12,4,0) tid=(3,6,0)
GPGPU-Sim PTX: 18300000 instructions simulated : ctaid=(1,5,0) tid=(8,6,0)
GPGPU-Sim uArch: cycles simulated: 42000  inst.: 17869568 (ipc=425.5) sim_rate=496376 (inst/sec) elapsed = 0:0:00:36 / Wed Mar  2 01:16:54 2016
GPGPU-Sim PTX: 18400000 instructions simulated : ctaid=(5,7,0) tid=(6,4,0)
GPGPU-Sim PTX: 18500000 instructions simulated : ctaid=(15,4,0) tid=(7,4,0)
GPGPU-Sim uArch: Shader 4 finished CTA #1 (42369,0), 4 CTAs running
GPGPU-Sim uArch: core:  4, cta: 1 initialized @(42370,0)
GPGPU-Sim uArch: Shader 10 finished CTA #4 (42471,0), 4 CTAs running
GPGPU-Sim uArch: core: 10, cta: 4 initialized @(42472,0)
GPGPU-Sim PTX: 18600000 instructions simulated : ctaid=(7,2,0) tid=(12,6,0)
GPGPU-Sim uArch: cycles simulated: 42500  inst.: 18117068 (ipc=426.3) sim_rate=489650 (inst/sec) elapsed = 0:0:00:37 / Wed Mar  2 01:16:55 2016
GPGPU-Sim uArch: Shader 4 finished CTA #2 (42582,0), 4 CTAs running
GPGPU-Sim uArch: core:  4, cta: 2 initialized @(42583,0)
GPGPU-Sim uArch: Shader 10 finished CTA #3 (42680,0), 4 CTAs running
GPGPU-Sim uArch: core: 10, cta: 3 initialized @(42681,0)
GPGPU-Sim PTX: 18700000 instructions simulated : ctaid=(13,7,0) tid=(1,0,0)
GPGPU-Sim uArch: Shader 13 finished CTA #1 (42760,0), 4 CTAs running
GPGPU-Sim uArch: core: 13, cta: 1 initialized @(42761,0)
GPGPU-Sim uArch: Shader 13 finished CTA #0 (42782,0), 4 CTAs running
GPGPU-Sim uArch: core: 13, cta: 0 initialized @(42783,0)
GPGPU-Sim PTX: 18800000 instructions simulated : ctaid=(15,6,0) tid=(12,1,0)
GPGPU-Sim uArch: Shader 4 finished CTA #4 (42900,0), 4 CTAs running
GPGPU-Sim uArch: core:  4, cta: 4 initialized @(42901,0)
GPGPU-Sim uArch: Shader 14 finished CTA #2 (42933,0), 4 CTAs running
GPGPU-Sim uArch: core: 14, cta: 2 initialized @(42934,0)
GPGPU-Sim uArch: Shader 13 finished CTA #3 (42968,0), 4 CTAs running
GPGPU-Sim uArch: core: 13, cta: 3 initialized @(42969,0)
GPGPU-Sim uArch: Shader 6 finished CTA #2 (42997,0), 4 CTAs running
GPGPU-Sim uArch: core:  6, cta: 2 initialized @(42998,0)
GPGPU-Sim uArch: Shader 14 finished CTA #1 (43039,0), 4 CTAs running
GPGPU-Sim uArch: core: 14, cta: 1 initialized @(43040,0)
GPGPU-Sim uArch: Shader 14 finished CTA #0 (43098,0), 4 CTAs running
GPGPU-Sim uArch: core: 14, cta: 0 initialized @(43099,0)
GPGPU-Sim PTX: 18900000 instructions simulated : ctaid=(0,7,0) tid=(6,7,0)
GPGPU-Sim uArch: Shader 9 finished CTA #3 (43113,0), 4 CTAs running
GPGPU-Sim uArch: core:  9, cta: 3 initialized @(43114,0)
GPGPU-Sim uArch: Shader 6 finished CTA #3 (43327,0), 4 CTAs running
GPGPU-Sim uArch: core:  6, cta: 3 initialized @(43328,0)
GPGPU-Sim PTX: 19000000 instructions simulated : ctaid=(5,7,0) tid=(12,7,0)
GPGPU-Sim uArch: Shader 6 finished CTA #1 (43372,0), 4 CTAs running
GPGPU-Sim uArch: core:  6, cta: 1 initialized @(43373,0)
GPGPU-Sim uArch: Shader 6 finished CTA #4 (43442,0), 4 CTAs running
GPGPU-Sim uArch: core:  6, cta: 4 initialized @(43443,0)
GPGPU-Sim uArch: cycles simulated: 43500  inst.: 18543103 (ipc=426.3) sim_rate=487976 (inst/sec) elapsed = 0:0:00:38 / Wed Mar  2 01:16:56 2016
[...]
traffic_breakdown_memtocore[LOCAL_ACC_W] = 355496 {8:44437,}
maxmrqlatency = 328 
maxdqlatency = 0 
maxmflatency = 1307 
averagemflatency = 240 
max_icnt2mem_latency = 762 
max_icnt2sh_latency = 141509 
mrq_lat_table:16075 	703 	937 	3528 	4144 	3564 	2627 	782 	36 	0 	0 	0 	0 	0 	0 	0 	0 	0 	0 	0 	0 	0 	0 	0 	0 	0 	0 	0 	0 	0 	0 	0 	
dq_lat_table:0 	0 	0 	0 	0 	0 	0 	0 	0 	0 	0 	0 	0 	0 	0 	0 	0 	0 	0 	0 	0 	0 	0 	0 	0 	0 	0 	0 	0 	0 	0 	0 	
mf_lat_table:0 	0 	0 	0 	0 	0 	0 	49289 	11006 	3414 	97 	0 	0 	0 	0 	0 	0 	0 	0 	0 	0 	0 	0 	0 	0 	0 	0 	0 	0 	0 	0 	0 	
icnt2mem_lat_table:0 	0 	0 	20609 	13149 	13715 	30625 	2781 	957 	159 	0 	0 	0 	0 	0 	0 	0 	0 	0 	0 	0 	0 	0 	0 	
icnt2sh_lat_table:0 	0 	0 	5031 	4073 	1814 	259 	0 	0 	239 	796 	2002 	3563 	2400 	5307 	11285 	23770 	3267 	0 	0 	0 	0 	0 	0 	
mf_lat_pw_table:0 	0 	0 	0 	0 	0 	0 	239 	12 	9 	0 	0 	0 	0 	0 	0 	0 	0 	0 	0 	0 	0 	0 	0 	0 	0 	0 	0 	0 	0 	0 	0 	
maximum concurrent accesses to same row:
dram[0]:        54        56        36        34        26        22        38        25        35        26        24        24        18        22        21        20 
dram[1]:        52        54        34        32        20        22        36        39        28        20        26        20        15        40        28        20 
dram[2]:        62        62        52        54        30        28        27        38        28        28        20        37        20        20        24        24 
dram[3]:        58        60        54        54        26        28        40        38        28        24        21        24        30        22        20        22 
dram[4]:        62        64        56        52        30        32        38        23        22        22        19        15        18        28        20        24 
dram[5]:        58        60        56        48        26        28        24        39        24        23        14        14        16        34        19        20 
maximum service time to same row:
dram[0]:     21339     22731     32544     22943     19487     20546     18466     17112     19056     18732     36505     22815     22789     22400     29605     29658 
dram[1]:     17472     17430     16837     17675     16373     14410     14008     18649     19080     18794     36343     45086     39641     38278     37250     24514 
dram[2]:     25116     19238     21953     17640     22115     16844     18952     27425     21863     19223     20519     20381     31293     30700     23075     35966 
dram[3]:     17887     31790     32899     30405     27638     16375     16821     16665     19435     19003     39593     20215     31109     30418     20325     20410 
dram[4]:     11952     21969     17689     28380     16697     31994     18653     18410     20477     18987     20575     20432     22430     22390     24519     20297 
dram[5]:      9865     15528     16830     29114     14850     16302     14251     16819     18566     18663     37100     30310     29780     29351     20012     19927 
average row accesses per activate:
dram[0]:  6.448979  4.923077  5.367347  4.600000  4.500000  3.430000  4.089744  3.673684  4.625000  3.176471  4.013158  3.723404  4.060241  4.155844  4.792453  4.725806 
dram[1]:  4.726027  5.690909  4.730159  4.920000  3.654206  3.483516  3.138211  3.961039  3.459677  3.226087  3.240385  4.424242  3.596639  4.061728  4.606557  4.295082 
dram[2]:  5.106061  6.000000  6.581395  4.934426  3.901235  4.011236  4.065934  4.657143  4.340909  3.551724  3.917526  3.808989  4.186813  4.188889  4.515625  3.922078 
dram[3]:  5.583333  6.489796  6.575000  4.826087  4.276923  3.542857  3.965116  3.737864  3.722772  3.449152  4.360000  3.112903  4.702703  3.742857  4.566667  3.872093 
dram[4]:  5.275362  7.348837  7.710526  5.295082  3.936170  3.736842  4.222222  4.452381  3.491228  3.917526  3.500000  3.333333  4.148936  3.988372  4.781818  3.559140 
dram[5]:  5.378788  5.894737  5.543859  5.615385  3.201754  3.925000  3.598214  3.641304  3.666667  3.932584  3.401961  4.013158  3.552381  4.876923  3.892857  3.789474 
average row locality = 32396/7823 = 4.141122
number of total memory accesses made:
dram[0]:         0         0         0         0         0         0         0         0         0         0         0         0         0         0         0         0 
dram[1]:         0         0         0         0         0         0         0         0         0         0         0         0         0         0         0         0 
dram[2]:         0         0         0         0         0         0         0         0         0         0         0         0         0         0         0         0 
dram[3]:         0         0         0         0         0         0         0         0         0         0         0         0         0         0         0         0 
dram[4]:         0         0         0         0         0         0         0         0         0         0         0         0         0         0         0         0 
dram[5]:         0         0         0         0         0         0         0         0         0         0         0         0         0         0         0         0 
total accesses: 0
min_bank_accesses = 0!
min_chip_accesses = 0!
number of total read accesses:
dram[0]:       144       139       114       130       129       143       129       140       151       151       124       144       141       140       116       126 
dram[1]:       157       136       123       106       165       130       157       124       174       154       142       120       177       142       124       117 
dram[2]:       152       144       122       127       134       146       149       135       158       169       154       135       160       160       130       130 
dram[3]:       146       142       114       141       115       152       134       157       155       166       133       155       144       168       124       140 
dram[4]:       158       138       126       134       155       143       150       152       162       155       134       156       162       147       118       144 
dram[5]:       151       145       133       124       150       127       159       133       151       141       144       126       160       138       139       126 
total reads: 13581
bank skew: 177/106 = 1.67
chip skew: 2334/2161 = 1.08
number of total write accesses:
dram[0]:       172       181       149       169       186       200       190       209       219       227       181       206       196       180       138       167 
dram[1]:       188       177       175       140       226       187       229       181       255       217       195       172       251       187       157       145 
dram[2]:       185       180       161       174       182       211       221       191       224       243       226       204       221       217       159       172 
dram[3]:       189       176       149       192       163       220       207       228       221       241       194       231       204       225       150       193 
dram[4]:       206       178       167       189       215       212       230       222       236       225       209       214       228       196       145       187 
dram[5]:       204       191       183       168       215       187       244       202       223       209       203       179       213       179       188       162 
total reads: 18815
bank skew: 255/138 = 1.85
chip skew: 3259/2970 = 1.10
average mf latency per bank:
dram[0]:        484       400       497       450       476       411       577       526       472       463       553       485       472       514       565       465
dram[1]:        489       422       433       529       383       433       462       566       408       460       486       546       384       500       507       526
dram[2]:        429       484       525       489       502       442       486       587       473       424       455       489       455       456       521       471
dram[3]:        419       472       543       437       525       404       515       478       469       419       505       429       468       422       537       426
dram[4]:        434       421       527       476       424       436       500       492       465       466       505       490       456       508       561       473
dram[5]:        422       401       463       492       411       478       455       539       488       484       506       558       449       527       448       502
maximum mf latency per bank:
dram[0]:       1014       999      1221       892      1028       918      1005      1083       995       753       953       804      1008      1059       987       794
dram[1]:        736       776       985       941       843      1040       807       764       934       721       689       887       753       707       673       716
dram[2]:        952       920      1222      1127      1108      1074      1154      1064       849      1093       940       912       873       897       901       799
dram[3]:        839       917      1265      1086      1054      1068      1080      1050       841      1042      1069       913       726       743       772       779
dram[4]:       1013      1085      1275      1307      1172      1129      1213      1254      1018       928       997       866       944       998      1038       920
dram[5]:        955       959      1188      1134      1089      1047      1070      1120       944      1007       895       843       781       797       882       981

Number of Memory Banks Accessed per Memory Operation per Warp (from 0):
0	0	0	0	0	0	0	0	0	0	0	0	0	0	0	0	0	0	0	0	0	0	0	0	0	0	0	0	0	0	0	0	0	0	0	0	0	0	0	0	0	0	0	0	0	0	0	0	0	0	0	0	0	0	0	0	0	0	0	0	0	0	0	0	0	0	0	0	0	0	0	0	0	0	0	0	0	0	0	0	0	0	0	0	0	0	0	0	0	0	0	0	0	0	0	0	
Average # of Memory Banks Accessed per Memory Operation per Warp=-nan

position of mrq chosen
0	0	0	0	0	0	0	0	0	0	0	0	0	0	0	0	

average position of mrq chosen = -nan
Memory Partition 0: 
Cache L2_bank_000:
MSHR contents

Cache L2_bank_001:
MSHR contents

In Dram Latency Queue (total = 0): 
DRAM[0]: 16 bks, busW=4 BL=16 CL=12, tRRD=2 tCCD=6, tRCD=12 tRAS=28 tRP=12 tRC=40
n_cmd=186792 n_nop=179247 n_act=1215 n_pre=1199 n_req=5131 n_rd=2161 n_write=2970 bw_util=0.1099
n_activity=46360 dram_eff=0.4427
bk0: 144a 180989i bk1: 139a 180530i bk2: 114a 181240i bk3: 130a 180426i bk4: 129a 179842i bk5: 143a 178867i bk6: 129a 179165i bk7: 140a 178466i bk8: 151a 179516i bk9: 151a 178741i bk10: 124a 179870i bk11: 144a 178920i bk12: 141a 179523i bk13: 140a 179519i bk14: 116a 181191i bk15: 126a 180797i 
dram_util_bins: 0 0 0 0 0 0 0 0 0 0
dram_eff_bins: 0 0 0 0 0 0 0 0 0 0
mrqq: max=16 avg=0.806742
Memory Partition 1: 
Cache L2_bank_002:
MSHR contents

Cache L2_bank_003:
MSHR contents

In Dram Latency Queue (total = 0): 
DRAM[1]: 16 bks, busW=4 BL=16 CL=12, tRRD=2 tCCD=6, tRCD=12 tRAS=28 tRP=12 tRC=40
n_cmd=186792 n_nop=178738 n_act=1370 n_pre=1354 n_req=5330 n_rd=2248 n_write=3082 bw_util=0.1141
n_activity=47943 dram_eff=0.4447
bk0: 157a 180429i bk1: 136a 180943i bk2: 123a 180765i bk3: 106a 181633i bk4: 165a 178744i bk5: 130a 179534i bk6: 157a 177450i bk7: 124a 179267i bk8: 174a 177917i bk9: 154a 178789i bk10: 142a 178939i bk11: 120a 180043i bk12: 177a 177296i bk13: 142a 179440i bk14: 124a 180461i bk15: 117a 180772i 
dram_util_bins: 0 0 0 0 0 0 0 0 0 0
dram_eff_bins: 0 0 0 0 0 0 0 0 0 0
mrqq: max=16 avg=0.755209
Memory Partition 2: 
Cache L2_bank_004:
MSHR contents

Cache L2_bank_005:
MSHR contents

In Dram Latency Queue (total = 0): 
DRAM[2]: 16 bks, busW=4 BL=16 CL=12, tRRD=2 tCCD=6, tRCD=12 tRAS=28 tRP=12 tRC=40
n_cmd=186792 n_nop=178798 n_act=1267 n_pre=1251 n_req=5476 n_rd=2305 n_write=3171 bw_util=0.1173
n_activity=48956 dram_eff=0.4474
bk0: 152a 180182i bk1: 144a 180969i bk2: 122a 181254i bk3: 127a 180576i bk4: 134a 179879i bk5: 146a 178774i bk6: 149a 178323i bk7: 135a 179067i bk8: 158a 179119i bk9: 169a 178061i bk10: 154a 178410i bk11: 135a 179109i bk12: 160a 178486i bk13: 160a 178399i bk14: 130a 179965i bk15: 130a 179967i 
dram_util_bins: 0 0 0 0 0 0 0 0 0 0
dram_eff_bins: 0 0 0 0 0 0 0 0 0 0
mrqq: max=16 avg=0.85199
Memory Partition 3: 
Cache L2_bank_006:
MSHR contents

Cache L2_bank_007:
MSHR contents

In Dram Latency Queue (total = 0): 
DRAM[3]: 16 bks, busW=4 BL=16 CL=12, tRRD=2 tCCD=6, tRCD=12 tRAS=28 tRP=12 tRC=40
n_cmd=186792 n_nop=178699 n_act=1320 n_pre=1304 n_req=5469 n_rd=2286 n_write=3183 bw_util=0.1171
n_activity=50481 dram_eff=0.4334
bk0: 146a 180504i bk1: 142a 180952i bk2: 114a 181623i bk3: 141a 180274i bk4: 115a 180291i bk5: 152a 178454i bk6: 134a 179217i bk7: 157a 177770i bk8: 155a 179170i bk9: 166a 178168i bk10: 133a 179584i bk11: 155a 178050i bk12: 144a 179316i bk13: 168a 178247i bk14: 124a 180323i bk15: 140a 179453i 
dram_util_bins: 0 0 0 0 0 0 0 0 0 0
dram_eff_bins: 0 0 0 0 0 0 0 0 0 0
mrqq: max=16 avg=0.7559
Memory Partition 4: 
Cache L2_bank_008:
MSHR contents

Cache L2_bank_009:
MSHR contents

In Dram Latency Queue (total = 0): 
DRAM[4]: 16 bks, busW=4 BL=16 CL=12, tRRD=2 tCCD=6, tRCD=12 tRAS=28 tRP=12 tRC=40
n_cmd=186792 n_nop=178571 n_act=1322 n_pre=1306 n_req=5593 n_rd=2334 n_write=3259 bw_util=0.1198
n_activity=50798 dram_eff=0.4404
bk0: 158a 180263i bk1: 138a 181109i bk2: 126a 181053i bk3: 134a 180541i bk4: 155a 178606i bk5: 143a 178830i bk6: 150a 178053i bk7: 152a 178427i bk8: 162a 178482i bk9: 155a 179074i bk10: 134a 179215i bk11: 156a 178362i bk12: 162a 177796i bk13: 147a 178944i bk14: 118a 180751i bk15: 144a 179437i 
dram_util_bins: 0 0 0 0 0 0 0 0 0 0
dram_eff_bins: 0 0 0 0 0 0 0 0 0 0
mrqq: max=16 avg=0.818927
Memory Partition 5: 
Cache L2_bank_010:
MSHR contents

Cache L2_bank_011:
MSHR contents

In Dram Latency Queue (total = 0): 
DRAM[5]: 16 bks, busW=4 BL=16 CL=12, tRRD=2 tCCD=6, tRCD=12 tRAS=28 tRP=12 tRC=40
n_cmd=186792 n_nop=178753 n_act=1329 n_pre=1313 n_req=5397 n_rd=2247 n_write=3150 bw_util=0.1156
n_activity=49264 dram_eff=0.4382
bk0: 151a 180203i bk1: 145a 180759i bk2: 133a 180862i bk3: 124a 180924i bk4: 150a 178734i bk5: 127a 179832i bk6: 159a 177621i bk7: 133a 178744i bk8: 151a 178330i bk9: 141a 179258i bk10: 144a 178849i bk11: 126a 179766i bk12: 160a 178606i bk13: 138a 179310i bk14: 139a 179515i bk15: 126a 180123i 
dram_util_bins: 0 0 0 0 0 0 0 0 0 0
dram_eff_bins: 0 0 0 0 0 0 0 0 0 0
mrqq: max=16 avg=0.769385

========= L2 cache stats =========
L2_cache_bank[0]: Access = 6554, Miss = 1048, Miss_rate = 0.160, Pending_hits = 93, Reservation_fails = 719
L2_cache_bank[1]: Access = 6731, Miss = 1113, Miss_rate = 0.165, Pending_hits = 90, Reservation_fails = 504
L2_cache_bank[2]: Access = 6687, Miss = 1219, Miss_rate = 0.182, Pending_hits = 86, Reservation_fails = 792
L2_cache_bank[3]: Access = 6587, Miss = 1029, Miss_rate = 0.156, Pending_hits = 70, Reservation_fails = 377
L2_cache_bank[4]: Access = 6710, Miss = 1159, Miss_rate = 0.173, Pending_hits = 85, Reservation_fails = 693
L2_cache_bank[5]: Access = 6953, Miss = 1146, Miss_rate = 0.165, Pending_hits = 79, Reservation_fails = 430
L2_cache_bank[6]: Access = 6921, Miss = 1065, Miss_rate = 0.154, Pending_hits = 74, Reservation_fails = 465
L2_cache_bank[7]: Access = 7041, Miss = 1221, Miss_rate = 0.173, Pending_hits = 76, Reservation_fails = 331
L2_cache_bank[8]: Access = 7174, Miss = 1165, Miss_rate = 0.162, Pending_hits = 89, Reservation_fails = 425
L2_cache_bank[9]: Access = 6809, Miss = 1169, Miss_rate = 0.172, Pending_hits = 69, Reservation_fails = 263
L2_cache_bank[10]: Access = 7056, Miss = 1187, Miss_rate = 0.168, Pending_hits = 78, Reservation_fails = 610
L2_cache_bank[11]: Access = 6772, Miss = 1060, Miss_rate = 0.157, Pending_hits = 83, Reservation_fails = 380
L2_total_cache_accesses = 81995
L2_total_cache_misses = 13581
L2_total_cache_miss_rate = 0.1656
L2_total_cache_pending_hits = 972
L2_total_cache_reservation_fails = 5989
L2_total_cache_breakdown:
	L2_cache_stats_breakdown[GLOBAL_ACC_R][HIT] = 3572
	L2_cache_stats_breakdown[GLOBAL_ACC_R][HIT_RESERVED] = 17
	L2_cache_stats_breakdown[GLOBAL_ACC_R][MISS] = 184
	L2_cache_stats_breakdown[GLOBAL_ACC_R][RESERVATION_FAIL] = 166
	L2_cache_stats_breakdown[LOCAL_ACC_R][HIT] = 6794
	L2_cache_stats_breakdown[LOCAL_ACC_R][HIT_RESERVED] = 127
	L2_cache_stats_breakdown[LOCAL_ACC_R][MISS] = 453
	L2_cache_stats_breakdown[CONST_ACC_R][HIT] = 22
	L2_cache_stats_breakdown[CONST_ACC_R][HIT_RESERVED] = 6
	L2_cache_stats_breakdown[CONST_ACC_R][MISS] = 2
	L2_cache_stats_breakdown[CONST_ACC_R][RESERVATION_FAIL] = 271
	L2_cache_stats_breakdown[GLOBAL_ACC_W][HIT] = 5489
	L2_cache_stats_breakdown[GLOBAL_ACC_W][HIT_RESERVED] = 655
	L2_cache_stats_breakdown[GLOBAL_ACC_W][MISS] = 2048
	L2_cache_stats_breakdown[GLOBAL_ACC_W][RESERVATION_FAIL] = 40
	L2_cache_stats_breakdown[LOCAL_ACC_W][HIT] = 34946
	L2_cache_stats_breakdown[LOCAL_ACC_W][HIT_RESERVED] = 11
	L2_cache_stats_breakdown[LOCAL_ACC_W][MISS] = 9480
	L2_cache_stats_breakdown[LOCAL_ACC_W][RESERVATION_FAIL] = 136
	L2_cache_stats_breakdown[L1_WRBK_ACC][HIT] = 3653
	L2_cache_stats_breakdown[L1_WRBK_ACC][MISS] = 1361
	L2_cache_stats_breakdown[INST_ACC_R][HIT] = 12966
	L2_cache_stats_breakdown[INST_ACC_R][HIT_RESERVED] = 156
	L2_cache_stats_breakdown[INST_ACC_R][MISS] = 53
	L2_cache_stats_breakdown[INST_ACC_R][RESERVATION_FAIL] = 5376
L2_cache_data_port_util = 0.152
L2_cache_fill_port_util = 0.032

icnt_total_pkts_mem_to_simt=174329
icnt_total_pkts_simt_to_mem=292981
LD_mem_lat_dist  0 0 0 0 0 0 0 0 0 0 0 0 0 0 0 0 0 0 0 0 0 0 0 0 0 0 0
ST_mem_lat_dist  0 0 0 0 0 0 0 0 0 0 0 0 0 0 0 0 0 0 0 0 0 0 0 0 0 0 0
----------------------------Interconnect-DETAILS--------------------------------
Class 0:
Packet latency average = 16.5052
	minimum = 6
	maximum = 568
Network latency average = 12.9766
	minimum = 6
	maximum = 497
Slowest packet = 685
Flit latency average = 11.8971
	minimum = 6
	maximum = 493
Slowest flit = 17123
Fragmentation average = 0.051555
	minimum = 0
	maximum = 342
Injected packet rate average = 0.0416084
	minimum = 0.0340612 (at node 0)
	maximum = 0.0474595 (at node 23)
Accepted packet rate average = 0.0416084
	minimum = 0.0327963 (at node 0)
	maximum = 0.0506961 (at node 23)
Injected flit rate average = 0.122308
	minimum = 0.0967352 (at node 15)
	maximum = 0.154173 (at node 2)
Accepted flit rate average= 0.122308
	minimum = 0.065642 (at node 0)
	maximum = 0.18051 (at node 23)
Injected packet length average = 2.9395
Accepted packet length average = 2.9395
Total in-flight flits = 0 (0 measured)
====== Overall Traffic Statistics ======
====== Traffic class 0 ======
Packet latency average = 16.5052 (1 samples)
	minimum = 6 (1 samples)
	maximum = 568 (1 samples)
Network latency average = 12.9766 (1 samples)
	minimum = 6 (1 samples)
	maximum = 497 (1 samples)
Flit latency average = 11.8971 (1 samples)
	minimum = 6 (1 samples)
	maximum = 493 (1 samples)
Fragmentation average = 0.051555 (1 samples)
	minimum = 0 (1 samples)
	maximum = 342 (1 samples)
Injected packet rate average = 0.0416084 (1 samples)
	minimum = 0.0340612 (1 samples)
	maximum = 0.0474595 (1 samples)
Accepted packet rate average = 0.0416084 (1 samples)
	minimum = 0.0327963 (1 samples)
	maximum = 0.0506961 (1 samples)
Injected flit rate average = 0.122308 (1 samples)
	minimum = 0.0967352 (1 samples)
	maximum = 0.154173 (1 samples)
Accepted flit rate average = 0.122308 (1 samples)
	minimum = 0.065642 (1 samples)
	maximum = 0.18051 (1 samples)
Injected packet size average = 2.9395 (1 samples)
Accepted packet size average = 2.9395 (1 samples)
Hops average = 1 (1 samples)
----------------------------END-of-Interconnect-DETAILS-------------------------


gpgpu_simulation_time = 0 days, 0 hrs, 2 min, 30 sec (150 sec)
gpgpu_simulation_rate = 417884 (inst/sec)
gpgpu_simulation_rate = 943 (cycle/sec)
GPGPU-Sim API: Stream Manager State
GPGPU-Sim: detected inactive GPU simulation thread

checksum=75ef40cb5b8e
Kernel Time: 148777.078125 
