

        *** GPGPU-Sim Simulator Version 3.2.2  [build 0] ***


GPGPU-Sim PTX: simulation mode 0 (can change with PTX_SIM_MODE_FUNC environment variable:
               1=functional simulation only, 0=detailed performance simulator)
GPGPU-Sim: Configuration options:

-network_mode                           1 # Interconnection network mode
-inter_config_file   config_fermi_islip.icnt # Interconnection network config file
-gpgpu_ptx_use_cuobjdump                    1 # Use cuobjdump to extract ptx and sass from binaries
-gpgpu_experimental_lib_support                    0 # Try to extract code from cuda libraries [Broken because of unknown cudaGetExportTable]
-gpgpu_ptx_convert_to_ptxplus                    0 # Convert SASS (native ISA) to ptxplus and run ptxplus
-gpgpu_ptx_force_max_capability                   20 # Force maximum compute capability
-gpgpu_ptx_inst_debug_to_file                    0 # Dump executed instructions' debug information to file
-gpgpu_ptx_inst_debug_file       inst_debug.txt # Executed instructions' debug output file
-gpgpu_ptx_inst_debug_thread_uid                    1 # Thread UID for executed instructions' debug output
-gpgpu_simd_model                       1 # 1 = post-dominator
-gpgpu_shader_core_pipeline              1536:32 # shader core pipeline config, i.e., {<nthread>:<warpsize>}
-gpgpu_tex_cache:l1  4:128:24,L:R:m:N:L,F:128:4,128:2 # per-shader L1 texture cache  (READ-ONLY) config  {<nsets>:<bsize>:<assoc>,<rep>:<wr>:<alloc>:<wr_alloc>,<mshr>:<N>:<merge>,<mq>:<rf>}
-gpgpu_const_cache:l1 64:64:2,L:R:f:N:L,A:2:32,4 # per-shader L1 constant memory cache  (READ-ONLY) config  {<nsets>:<bsize>:<assoc>,<rep>:<wr>:<alloc>:<wr_alloc>,<mshr>:<N>:<merge>,<mq>} 
-gpgpu_cache:il1     4:128:4,L:R:f:N:L,A:2:32,4 # shader L1 instruction cache config  {<nsets>:<bsize>:<assoc>,<rep>:<wr>:<alloc>:<wr_alloc>,<mshr>:<N>:<merge>,<mq>} 
-gpgpu_cache:dl1     32:128:4,L:L:m:N:H,A:32:8,8 # per-shader L1 data cache config  {<nsets>:<bsize>:<assoc>,<rep>:<wr>:<alloc>:<wr_alloc>,<mshr>:<N>:<merge>,<mq> | none}
-gpgpu_cache:dl1PrefL1                 none # per-shader L1 data cache config  {<nsets>:<bsize>:<assoc>,<rep>:<wr>:<alloc>:<wr_alloc>,<mshr>:<N>:<merge>,<mq> | none}
-gpgpu_cache:dl1PreShared                 none # per-shader L1 data cache config  {<nsets>:<bsize>:<assoc>,<rep>:<wr>:<alloc>:<wr_alloc>,<mshr>:<N>:<merge>,<mq> | none}
-gmem_skip_L1D                          0 # global memory access skip L1D cache (implements -Xptxas -dlcm=cg, default=no skip)
-gpgpu_perfect_mem                      0 # enable perfect memory mode (no cache miss)
-n_regfile_gating_group                    4 # group of lanes that should be read/written together)
-gpgpu_clock_gated_reg_file                    0 # enable clock gated reg file for power calculations
-gpgpu_clock_gated_lanes                    0 # enable clock gated lanes for power calculations
-gpgpu_shader_registers                32768 # Number of registers per shader core. Limits number of concurrent CTAs. (default 8192)
-gpgpu_shader_cta                       8 # Maximum number of concurrent CTAs in shader (default 8)
-gpgpu_num_cta_barriers                   16 # Maximum number of named barriers per CTA (default 16)
-gpgpu_n_clusters                      15 # number of processing clusters
-gpgpu_n_cores_per_cluster                    1 # number of simd cores per cluster
-gpgpu_n_cluster_ejection_buffer_size                    8 # number of packets in ejection buffer
-gpgpu_n_ldst_response_buffer_size                    2 # number of response packets in ld/st unit ejection buffer
-gpgpu_shmem_size                   16384 # Size of shared memory per shader core (default 16kB)
-gpgpu_shmem_size                   49152 # Size of shared memory per shader core (default 16kB)
-gpgpu_shmem_size_PrefL1                16384 # Size of shared memory per shader core (default 16kB)
-gpgpu_shmem_size_PrefShared                16384 # Size of shared memory per shader core (default 16kB)
-gpgpu_shmem_num_banks                   32 # Number of banks in the shared memory in each shader core (default 16)
-gpgpu_shmem_limited_broadcast                    0 # Limit shared memory to do one broadcast per cycle (default on)
-gpgpu_shmem_warp_parts                    1 # Number of portions a warp is divided into for shared memory bank conflict check 
-gpgpu_warpdistro_shader                   -1 # Specify which shader core to collect the warp size distribution from
-gpgpu_warp_issue_shader                    0 # Specify which shader core to collect the warp issue distribution from
-gpgpu_local_mem_map                    1 # Mapping from local memory space address to simulated GPU physical address space (default = enabled)
-gpgpu_num_reg_banks                   16 # Number of register banks (default = 8)
-gpgpu_reg_bank_use_warp_id                    0 # Use warp ID in mapping registers to banks (default = off)
-gpgpu_operand_collector_num_units_sp                    6 # number of collector units (default = 4)
-gpgpu_operand_collector_num_units_sfu                    8 # number of collector units (default = 4)
-gpgpu_operand_collector_num_units_mem                    2 # number of collector units (default = 2)
-gpgpu_operand_collector_num_units_gen                    0 # number of collector units (default = 0)
-gpgpu_operand_collector_num_in_ports_sp                    2 # number of collector unit in ports (default = 1)
-gpgpu_operand_collector_num_in_ports_sfu                    1 # number of collector unit in ports (default = 1)
-gpgpu_operand_collector_num_in_ports_mem                    1 # number of collector unit in ports (default = 1)
-gpgpu_operand_collector_num_in_ports_gen                    0 # number of collector unit in ports (default = 0)
-gpgpu_operand_collector_num_out_ports_sp                    2 # number of collector unit in ports (default = 1)
-gpgpu_operand_collector_num_out_ports_sfu                    1 # number of collector unit in ports (default = 1)
-gpgpu_operand_collector_num_out_ports_mem                    1 # number of collector unit in ports (default = 1)
-gpgpu_operand_collector_num_out_ports_gen                    0 # number of collector unit in ports (default = 0)
-gpgpu_coalesce_arch                   13 # Coalescing arch (default = 13, anything else is off for now)
-gpgpu_num_sched_per_core                    2 # Number of warp schedulers per core
-gpgpu_max_insn_issue_per_warp                    1 # Max number of instructions that can be issued per warp in one cycle by scheduler
-gpgpu_simt_core_sim_order                    1 # Select the simulation order of cores in a cluster (0=Fix, 1=Round-Robin)
-gpgpu_pipeline_widths        2,1,1,2,1,1,2 # Pipeline widths ID_OC_SP,ID_OC_SFU,ID_OC_MEM,OC_EX_SP,OC_EX_SFU,OC_EX_MEM,EX_WB
-gpgpu_num_sp_units                     2 # Number of SP units (default=1)
-gpgpu_num_sfu_units                    1 # Number of SF units (default=1)
-gpgpu_num_mem_units                    1 # Number if ldst units (default=1) WARNING: not hooked up to anything
-gpgpu_scheduler                      gto # Scheduler configuration: < lrr | gto | two_level_active > If two_level_active:<num_active_warps>:<inner_prioritization>:<outer_prioritization>For complete list of prioritization values see shader.h enum scheduler_prioritization_typeDefault: gto
-gpgpu_dram_scheduler                    1 # 0 = fifo, 1 = FR-FCFS (defaul)
-gpgpu_dram_partition_queues              8:8:8:8 # i2$:$2d:d2$:$2i
-l2_ideal                               0 # Use a ideal L2 cache that always hit
-gpgpu_cache:dl2     64:128:8,L:B:m:W:L,A:32:4,4:0,32 # unified banked L2 data cache config  {<nsets>:<bsize>:<assoc>,<rep>:<wr>:<alloc>:<wr_alloc>,<mshr>:<N>:<merge>,<mq>}
-gpgpu_cache:dl2_texture_only                    0 # L2 cache used for texture only
-gpgpu_n_mem                            6 # number of memory modules (e.g. memory controllers) in gpu
-gpgpu_n_sub_partition_per_mchannel                    2 # number of memory subpartition in each memory module
-gpgpu_n_mem_per_ctrlr                    2 # number of memory chips per memory controller
-gpgpu_memlatency_stat                   14 # track and display latency statistics 0x2 enables MC, 0x4 enables queue logs
-gpgpu_frfcfs_dram_sched_queue_size                   16 # 0 = unlimited (default); # entries per chip
-gpgpu_dram_return_queue_size                  116 # 0 = unlimited (default); # entries per chip
-gpgpu_dram_buswidth                    8 # default = 4 bytes (8 bytes per cycle at DDR)
-gpgpu_dram_burst_length                    8 # Burst length of each DRAM request (default = 4 data bus cycle)
-dram_data_command_freq_ratio                    4 # Frequency ratio between DRAM data bus and command bus (default = 2 times, i.e. DDR)
-gpgpu_dram_timing_opt nbk=16:CCD=2:RRD=6:RCD=12:RAS=28:RP=12:RC=40: CL=12:WL=4:CDLR=5:WR=12:nbkgrp=4:CCDL=3:RTPL=2 # DRAM timing parameters = {nbk:tCCD:tRRD:tRCD:tRAS:tRP:tRC:CL:WL:tCDLR:tWR:nbkgrp:tCCDL:tRTPL}
-rop_latency                          120 # ROP queue latency (default 85)
-dram_latency                         100 # DRAM latency (default 30)
-gpgpu_mem_addr_mapping dramid@8;00000000.00000000.00000000.00000000.0000RRRR.RRRRRRRR.BBBCCCCB.CCSSSSSS # mapping memory address to dram model {dramid@<start bit>;<memory address map>}
-gpgpu_mem_addr_test                    0 # run sweep test to check address mapping for aliased address
-gpgpu_mem_address_mask                    1 # 0 = old addressing mask, 1 = new addressing mask, 2 = new add. mask + flipped bank sel and chip sel bits
-gpuwattch_xml_file  gpuwattch_gtx480.xml # GPUWattch XML file
-power_simulation_enabled                    0 # Turn on power simulator (1=On, 0=Off)
-power_per_cycle_dump                    0 # Dump detailed power output each cycle
-power_trace_enabled                    0 # produce a file for the power trace (1=On, 0=Off)
-power_trace_zlevel                     6 # Compression level of the power trace output log (0=no comp, 9=highest)
-steady_power_levels_enabled                    0 # produce a file for the steady power levels (1=On, 0=Off)
-steady_state_definition                  8:4 # allowed deviation:number of samples
-gpgpu_max_cycle                        0 # terminates gpu simulation early (0 = no limit)
-gpgpu_max_insn                         0 # terminates gpu simulation early (0 = no limit)
-gpgpu_max_cta                          0 # terminates gpu simulation early (0 = no limit)
-gpgpu_runtime_stat                   500 # display runtime statistics such as dram utilization {<freq>:<flag>}
-liveness_message_freq                    1 # Minimum number of seconds between simulation liveness messages (0 = always print)
-gpgpu_flush_l1_cache                    0 # Flush L1 cache at the end of each kernel call
-gpgpu_flush_l2_cache                    0 # Flush L2 cache at the end of each kernel call
-gpgpu_deadlock_detect                    1 # Stop the simulation at deadlock (1=on (default), 0=off)
-gpgpu_ptx_instruction_classification                    0 # if enabled will classify ptx instruction types per kernel (Max 255 kernels now)
-gpgpu_ptx_sim_mode                     0 # Select between Performance (default) or Functional simulation (1)
-gpgpu_clock_domains 700.0:700.0:700.0:924.0 # Clock Domain Frequencies in MhZ {<Core Clock>:<ICNT Clock>:<L2 Clock>:<DRAM Clock>}
-gpgpu_max_concurrent_kernel                    8 # maximum kernels that can run concurrently on GPU
-gpgpu_cflog_interval                    0 # Interval between each snapshot in control flow logger
-visualizer_enabled                     0 # Turn on visualizer output (1=On, 0=Off)
-visualizer_outputfile                 NULL # Specifies the output log file for visualizer
-visualizer_zlevel                      6 # Compression level of the visualizer output log (0=no comp, 9=highest)
-trace_enabled                          0 # Turn on traces
-trace_components                    none # comma seperated list of traces to enable. Complete list found in trace_streams.tup. Default none
-trace_sampling_core                    0 # The core which is printed using CORE_DPRINTF. Default 0
-trace_sampling_memory_partition                   -1 # The memory partition which is printed using MEMPART_DPRINTF. Default -1 (i.e. all)
-enable_ptx_file_line_stats                    1 # Turn on PTX source line statistic profiling. (1 = On)
-ptx_line_stats_filename gpgpu_inst_stats.txt # Output file for PTX source line statistics.
-save_embedded_ptx                      0 # saves ptx files embedded in binary as <n>.ptx
-keep                                   0 # keep intermediate files created by GPGPU-Sim when interfacing with external programs
-gpgpu_ptx_save_converted_ptxplus                    0 # Saved converted ptxplus to a file
-ptx_opcode_latency_int         4,13,4,5,145 # Opcode latencies for integers <ADD,MAX,MUL,MAD,DIV>Default 1,1,19,25,145
-ptx_opcode_latency_fp          4,13,4,5,39 # Opcode latencies for single precision floating points <ADD,MAX,MUL,MAD,DIV>Default 1,1,1,1,30
-ptx_opcode_latency_dp         8,19,8,8,330 # Opcode latencies for double precision floating points <ADD,MAX,MUL,MAD,DIV>Default 8,8,8,8,335
-ptx_opcode_initiation_int            1,2,2,1,8 # Opcode initiation intervals for integers <ADD,MAX,MUL,MAD,DIV>Default 1,1,4,4,32
-ptx_opcode_initiation_fp            1,2,1,1,4 # Opcode initiation intervals for single precision floating points <ADD,MAX,MUL,MAD,DIV>Default 1,1,1,1,5
-ptx_opcode_initiation_dp         8,16,8,8,130 # Opcode initiation intervals for double precision floating points <ADD,MAX,MUL,MAD,DIV>Default 8,8,8,8,130
DRAM Timing Options:
nbk                                    16 # number of banks
CCD                                     2 # column to column delay
RRD                                     6 # minimal delay between activation of rows in different banks
RCD                                    12 # row to column delay
RAS                                    28 # time needed to activate row
RP                                     12 # time needed to precharge (deactivate) row
RC                                     40 # row cycle time
CDLR                                    5 # switching from write to read (changes tWTR)
WR                                     12 # last data-in to row precharge
CL                                     12 # CAS latency
WL                                      4 # Write latency
nbkgrp                                  4 # number of bank groups
CCDL                                    3 # column to column delay between accesses to different bank groups
RTPL                                    2 # read to precharge delay between accesses to different bank groups
Total number of memory sub partition = 12
addr_dec_mask[CHIP]  = 0000000000000000 	high:64 low:0
addr_dec_mask[BK]    = 000000000000e100 	high:16 low:8
addr_dec_mask[ROW]   = 000000000fff0000 	high:28 low:16
addr_dec_mask[COL]   = 0000000000001eff 	high:13 low:0
addr_dec_mask[BURST] = 000000000000003f 	high:6 low:0
sub_partition_id_mask = 0000000000000100
GPGPU-Sim uArch: clock freqs: 700000000.000000:700000000.000000:700000000.000000:924000000.000000
GPGPU-Sim uArch: clock periods: 0.00000000142857142857:0.00000000142857142857:0.00000000142857142857:0.00000000108225108225
*** Initializing Memory Statistics ***
GPGPU-Sim uArch: interconnect node map (shaderID+MemID to icntID)
GPGPU-Sim uArch: Memory nodes ID start from index: 15
GPGPU-Sim uArch:    0   1   2   3   4
GPGPU-Sim uArch:    5   6   7   8   9
GPGPU-Sim uArch:   10  11  12  13  14
GPGPU-Sim uArch:   15  16  17  18  19
GPGPU-Sim uArch:   20  21  22  23  24
GPGPU-Sim uArch:   25  26
GPGPU-Sim uArch: interconnect node reverse map (icntID to shaderID+MemID)
GPGPU-Sim uArch: Memory nodes start from ID: 15
GPGPU-Sim uArch:    0   1   2   3   4
GPGPU-Sim uArch:    5   6   7   8   9
GPGPU-Sim uArch:   10  11  12  13  14
GPGPU-Sim uArch:   15  16  17  18  19
GPGPU-Sim uArch:   20  21  22  23  24
GPGPU-Sim uArch:   25  26
e389dacb331e7fcddf4abf4a164344f1  /sciclone/data20/adwait/applications/benchmarks/CUDA/BlackScholes/gpgpu_ptx_sim__BlackScholes
GPGPU-Sim uArch: performance model initialization complete.
GPGPU-Sim PTX: __cudaRegisterFatBinary, fat_cubin_handle = 1, filename=BlackScholes.cu
self exe links to: /sciclone/data20/adwait/applications/benchmarks/CUDA/BlackScholes/gpgpu_ptx_sim__BlackScholes
Running md5sum using "md5sum /sciclone/data20/adwait/applications/benchmarks/CUDA/BlackScholes/gpgpu_ptx_sim__BlackScholes "
Parsing file _cuobjdump_complete_output_O6cg5t
######### cuobjdump parser ########
## Adding new section ELF
Adding arch: sm_20
Adding identifier: BlackScholes.cu
## Adding new section PTX
Adding ptx filename: _cuobjdump_1.ptx
Adding arch: sm_20
Adding identifier: BlackScholes.cu
Done parsing!!!
GPGPU-Sim PTX: __cudaRegisterFunction _Z15BlackScholesGPUPfS_S_S_S_ffi : hostFun 0x0x405752, fat_cubin_handle = 1
GPGPU-Sim PTX: instruction assembly for function '_Z15BlackScholesGPUPfS_S_S_S_ffi'...   done.
GPGPU-Sim PTX: finding reconvergence points for '_Z15BlackScholesGPUPfS_S_S_S_ffi'...
GPGPU-Sim PTX: Finding dominators for '_Z15BlackScholesGPUPfS_S_S_S_ffi'...
GPGPU-Sim PTX: Finding immediate dominators for '_Z15BlackScholesGPUPfS_S_S_S_ffi'...
GPGPU-Sim PTX: Finding postdominators for '_Z15BlackScholesGPUPfS_S_S_S_ffi'...
GPGPU-Sim PTX: Finding immediate postdominators for '_Z15BlackScholesGPUPfS_S_S_S_ffi'...
GPGPU-Sim PTX: pre-decoding instructions for '_Z15BlackScholesGPUPfS_S_S_S_ffi'...
GPGPU-Sim PTX: reconvergence points for _Z15BlackScholesGPUPfS_S_S_S_ffi...
GPGPU-Sim PTX:  1 (potential) branch divergence @  PC=0x040 (_1.ptx:76) @%p1 bra $Lt_0_2818;
GPGPU-Sim PTX:    immediate post dominator      @  PC=0x3f8 (_1.ptx:200) exit;
GPGPU-Sim PTX:  2 (potential) branch divergence @  PC=0x3f0 (_1.ptx:197) @%p4 bra $Lt_0_3330;
GPGPU-Sim PTX:    immediate post dominator      @  PC=0x3f8 (_1.ptx:200) exit;
GPGPU-Sim PTX: ... end of reconvergence points for _Z15BlackScholesGPUPfS_S_S_S_ffi
GPGPU-Sim PTX: ... done pre-decoding instructions for '_Z15BlackScholesGPUPfS_S_S_S_ffi'.
GPGPU-Sim PTX: finished parsing EMBEDDED .ptx file _1.ptx
Adding _cuobjdump_1.ptx with cubin handle 1
GPGPU-Sim PTX: extracting embedded .ptx to temporary file "_ptx_PkuxzK"
Running: cat _ptx_PkuxzK | sed 's/.version 1.5/.version 1.4/' | sed 's/, texmode_independent//' | sed 's/\(\.extern \.const\[1\] .b8 \w\+\)\[\]/\1\[1\]/' | sed 's/const\[.\]/const\[0\]/g' > _ptx2_Wapmt1
GPGPU-Sim PTX: generating ptxinfo using "$CUDA_INSTALL_PATH/bin/ptxas --gpu-name=sm_20 -v _ptx2_Wapmt1 --output-file  /dev/null 2> _ptx_PkuxzKinfo"
GPGPU-Sim PTX: Kernel '_Z15BlackScholesGPUPfS_S_S_S_ffi' : regs=31, lmem=0, smem=0, cmem=128
GPGPU-Sim PTX: removing ptxinfo using "rm -f _ptx_PkuxzK _ptx2_Wapmt1 _ptx_PkuxzKinfo"
GPGPU-Sim PTX: loading globals with explicit initializers... 
GPGPU-Sim PTX: finished loading globals (0 bytes total).
GPGPU-Sim PTX: loading constants with explicit initializers...  done.
Initializing data...
...allocating CPU memory for options.
...allocating GPU memory for options.
...generating input data in CPU mem.
...copying input data to GPU mem.
Data init done.
Executing Black-Scholes GPU kernel (1 iterations)...
GPGPU-Sim: synchronize waiting for inactive GPU simulation
GPGPU-Sim API: Stream Manager State
GPGPU-Sim: detected inactive GPU simulation thread

GPGPU-Sim PTX: cudaLaunch for 0x0x405752 (mode=performance simulation) on stream 0
GPGPU-Sim PTX: pushing kernel '_Z15BlackScholesGPUPfS_S_S_S_ffi' to stream 0, gridDim= (480,1,1) blockDim = (128,1,1) 
kernel '_Z15BlackScholesGPUPfS_S_S_S_ffi' transfer to GPU hardware scheduler
GPGPU-Sim uArch: Shader 1 bind to kernel 1 '_Z15BlackScholesGPUPfS_S_S_S_ffi'
GPGPU-Sim uArch: CTA/core = 8, limited by: regs cta_limit
GPGPU-Sim uArch: core:  1, cta: 0 initialized @(1,0)
GPGPU-Sim uArch: Shader 2 bind to kernel 1 '_Z15BlackScholesGPUPfS_S_S_S_ffi'
GPGPU-Sim uArch: core:  2, cta: 0 initialized @(1,0)
GPGPU-Sim uArch: Shader 3 bind to kernel 1 '_Z15BlackScholesGPUPfS_S_S_S_ffi'
GPGPU-Sim uArch: core:  3, cta: 0 initialized @(1,0)
GPGPU-Sim uArch: Shader 4 bind to kernel 1 '_Z15BlackScholesGPUPfS_S_S_S_ffi'
GPGPU-Sim uArch: core:  4, cta: 0 initialized @(1,0)
GPGPU-Sim uArch: Shader 5 bind to kernel 1 '_Z15BlackScholesGPUPfS_S_S_S_ffi'
GPGPU-Sim uArch: core:  5, cta: 0 initialized @(1,0)
GPGPU-Sim uArch: Shader 6 bind to kernel 1 '_Z15BlackScholesGPUPfS_S_S_S_ffi'
GPGPU-Sim uArch: core:  6, cta: 0 initialized @(1,0)
GPGPU-Sim uArch: Shader 7 bind to kernel 1 '_Z15BlackScholesGPUPfS_S_S_S_ffi'
GPGPU-Sim uArch: core:  7, cta: 0 initialized @(1,0)
GPGPU-Sim uArch: Shader 8 bind to kernel 1 '_Z15BlackScholesGPUPfS_S_S_S_ffi'
GPGPU-Sim uArch: core:  8, cta: 0 initialized @(1,0)
GPGPU-Sim uArch: Shader 9 bind to kernel 1 '_Z15BlackScholesGPUPfS_S_S_S_ffi'
GPGPU-Sim uArch: core:  9, cta: 0 initialized @(1,0)
GPGPU-Sim uArch: Shader 10 bind to kernel 1 '_Z15BlackScholesGPUPfS_S_S_S_ffi'
GPGPU-Sim uArch: core: 10, cta: 0 initialized @(1,0)
GPGPU-Sim uArch: Shader 11 bind to kernel 1 '_Z15BlackScholesGPUPfS_S_S_S_ffi'
GPGPU-Sim uArch: core: 11, cta: 0 initialized @(1,0)
GPGPU-Sim uArch: Shader 12 bind to kernel 1 '_Z15BlackScholesGPUPfS_S_S_S_ffi'
GPGPU-Sim uArch: core: 12, cta: 0 initialized @(1,0)
GPGPU-Sim uArch: Shader 13 bind to kernel 1 '_Z15BlackScholesGPUPfS_S_S_S_ffi'
GPGPU-Sim uArch: core: 13, cta: 0 initialized @(1,0)
GPGPU-Sim uArch: Shader 14 bind to kernel 1 '_Z15BlackScholesGPUPfS_S_S_S_ffi'
GPGPU-Sim uArch: core: 14, cta: 0 initialized @(1,0)
GPGPU-Sim uArch: Shader 0 bind to kernel 1 '_Z15BlackScholesGPUPfS_S_S_S_ffi'
GPGPU-Sim uArch: core:  0, cta: 0 initialized @(1,0)
GPGPU-Sim uArch: core:  1, cta: 1 initialized @(2,0)
GPGPU-Sim uArch: core:  2, cta: 1 initialized @(2,0)
GPGPU-Sim uArch: core:  3, cta: 1 initialized @(2,0)
GPGPU-Sim uArch: core:  4, cta: 1 initialized @(2,0)
GPGPU-Sim uArch: core:  5, cta: 1 initialized @(2,0)
GPGPU-Sim uArch: core:  6, cta: 1 initialized @(2,0)
GPGPU-Sim uArch: core:  7, cta: 1 initialized @(2,0)
GPGPU-Sim uArch: core:  8, cta: 1 initialized @(2,0)
GPGPU-Sim uArch: core:  9, cta: 1 initialized @(2,0)
GPGPU-Sim uArch: core: 10, cta: 1 initialized @(2,0)
GPGPU-Sim uArch: core: 11, cta: 1 initialized @(2,0)
GPGPU-Sim uArch: core: 12, cta: 1 initialized @(2,0)
GPGPU-Sim uArch: core: 13, cta: 1 initialized @(2,0)
GPGPU-Sim uArch: core: 14, cta: 1 initialized @(2,0)
GPGPU-Sim uArch: core:  0, cta: 1 initialized @(2,0)
GPGPU-Sim uArch: core:  1, cta: 2 initialized @(3,0)
GPGPU-Sim uArch: core:  2, cta: 2 initialized @(3,0)
GPGPU-Sim uArch: core:  3, cta: 2 initialized @(3,0)
GPGPU-Sim uArch: core:  4, cta: 2 initialized @(3,0)
GPGPU-Sim uArch: core:  5, cta: 2 initialized @(3,0)
GPGPU-Sim uArch: core:  6, cta: 2 initialized @(3,0)
GPGPU-Sim uArch: core:  7, cta: 2 initialized @(3,0)
GPGPU-Sim uArch: core:  8, cta: 2 initialized @(3,0)
GPGPU-Sim uArch: core:  9, cta: 2 initialized @(3,0)
GPGPU-Sim uArch: core: 10, cta: 2 initialized @(3,0)
GPGPU-Sim uArch: core: 11, cta: 2 initialized @(3,0)
GPGPU-Sim uArch: core: 12, cta: 2 initialized @(3,0)
GPGPU-Sim uArch: core: 13, cta: 2 initialized @(3,0)
GPGPU-Sim uArch: core: 14, cta: 2 initialized @(3,0)
GPGPU-Sim uArch: core:  0, cta: 2 initialized @(3,0)
GPGPU-Sim uArch: core:  1, cta: 3 initialized @(4,0)
GPGPU-Sim uArch: core:  2, cta: 3 initialized @(4,0)
GPGPU-Sim uArch: core:  3, cta: 3 initialized @(4,0)
GPGPU-Sim uArch: core:  4, cta: 3 initialized @(4,0)
GPGPU-Sim uArch: core:  5, cta: 3 initialized @(4,0)
GPGPU-Sim uArch: core:  6, cta: 3 initialized @(4,0)
GPGPU-Sim uArch: core:  7, cta: 3 initialized @(4,0)
GPGPU-Sim uArch: core:  8, cta: 3 initialized @(4,0)
GPGPU-Sim uArch: core:  9, cta: 3 initialized @(4,0)
GPGPU-Sim uArch: core: 10, cta: 3 initialized @(4,0)
GPGPU-Sim uArch: core: 11, cta: 3 initialized @(4,0)
GPGPU-Sim uArch: core: 12, cta: 3 initialized @(4,0)
GPGPU-Sim uArch: core: 13, cta: 3 initialized @(4,0)
GPGPU-Sim uArch: core: 14, cta: 3 initialized @(4,0)
GPGPU-Sim uArch: core:  0, cta: 3 initialized @(4,0)
GPGPU-Sim uArch: core:  1, cta: 4 initialized @(5,0)
GPGPU-Sim uArch: core:  2, cta: 4 initialized @(5,0)
GPGPU-Sim uArch: core:  3, cta: 4 initialized @(5,0)
GPGPU-Sim uArch: core:  4, cta: 4 initialized @(5,0)
GPGPU-Sim uArch: core:  5, cta: 4 initialized @(5,0)
GPGPU-Sim uArch: core:  6, cta: 4 initialized @(5,0)
GPGPU-Sim uArch: core:  7, cta: 4 initialized @(5,0)
GPGPU-Sim uArch: core:  8, cta: 4 initialized @(5,0)
GPGPU-Sim uArch: core:  9, cta: 4 initialized @(5,0)
GPGPU-Sim uArch: core: 10, cta: 4 initialized @(5,0)
GPGPU-Sim uArch: core: 11, cta: 4 initialized @(5,0)
GPGPU-Sim uArch: core: 12, cta: 4 initialized @(5,0)
GPGPU-Sim uArch: core: 13, cta: 4 initialized @(5,0)
GPGPU-Sim uArch: core: 14, cta: 4 initialized @(5,0)
GPGPU-Sim uArch: core:  0, cta: 4 initialized @(5,0)
GPGPU-Sim uArch: core:  1, cta: 5 initialized @(6,0)
GPGPU-Sim uArch: core:  2, cta: 5 initialized @(6,0)
GPGPU-Sim uArch: core:  3, cta: 5 initialized @(6,0)
GPGPU-Sim uArch: core:  4, cta: 5 initialized @(6,0)
GPGPU-Sim uArch: core:  5, cta: 5 initialized @(6,0)
GPGPU-Sim uArch: core:  6, cta: 5 initialized @(6,0)
GPGPU-Sim uArch: core:  7, cta: 5 initialized @(6,0)
GPGPU-Sim uArch: core:  8, cta: 5 initialized @(6,0)
GPGPU-Sim uArch: core:  9, cta: 5 initialized @(6,0)
GPGPU-Sim uArch: core: 10, cta: 5 initialized @(6,0)
GPGPU-Sim uArch: core: 11, cta: 5 initialized @(6,0)
GPGPU-Sim uArch: core: 12, cta: 5 initialized @(6,0)
GPGPU-Sim uArch: core: 13, cta: 5 initialized @(6,0)
GPGPU-Sim uArch: core: 14, cta: 5 initialized @(6,0)
GPGPU-Sim uArch: core:  0, cta: 5 initialized @(6,0)
GPGPU-Sim uArch: core:  1, cta: 6 initialized @(7,0)
GPGPU-Sim uArch: core:  2, cta: 6 initialized @(7,0)
GPGPU-Sim uArch: core:  3, cta: 6 initialized @(7,0)
GPGPU-Sim uArch: core:  4, cta: 6 initialized @(7,0)
GPGPU-Sim uArch: core:  5, cta: 6 initialized @(7,0)
GPGPU-Sim uArch: core:  6, cta: 6 initialized @(7,0)
GPGPU-Sim uArch: core:  7, cta: 6 initialized @(7,0)
GPGPU-Sim uArch: core:  8, cta: 6 initialized @(7,0)
GPGPU-Sim uArch: core:  9, cta: 6 initialized @(7,0)
GPGPU-Sim uArch: core: 10, cta: 6 initialized @(7,0)
GPGPU-Sim uArch: core: 11, cta: 6 initialized @(7,0)
GPGPU-Sim uArch: core: 12, cta: 6 initialized @(7,0)
GPGPU-Sim uArch: core: 13, cta: 6 initialized @(7,0)
GPGPU-Sim uArch: core: 14, cta: 6 initialized @(7,0)
GPGPU-Sim uArch: core:  0, cta: 6 initialized @(7,0)
GPGPU-Sim uArch: core:  1, cta: 7 initialized @(8,0)
GPGPU-Sim uArch: core:  2, cta: 7 initialized @(8,0)
GPGPU-Sim uArch: core:  3, cta: 7 initialized @(8,0)
GPGPU-Sim uArch: core:  4, cta: 7 initialized @(8,0)
GPGPU-Sim uArch: core:  5, cta: 7 initialized @(8,0)
GPGPU-Sim uArch: core:  6, cta: 7 initialized @(8,0)
GPGPU-Sim uArch: core:  7, cta: 7 initialized @(8,0)
GPGPU-Sim uArch: core:  8, cta: 7 initialized @(8,0)
GPGPU-Sim uArch: core:  9, cta: 7 initialized @(8,0)
GPGPU-Sim uArch: core: 10, cta: 7 initialized @(8,0)
GPGPU-Sim uArch: core: 11, cta: 7 initialized @(8,0)
GPGPU-Sim uArch: core: 12, cta: 7 initialized @(8,0)
GPGPU-Sim uArch: core: 13, cta: 7 initialized @(8,0)
GPGPU-Sim uArch: core: 14, cta: 7 initialized @(8,0)
GPGPU-Sim uArch: core:  0, cta: 7 initialized @(8,0)
GPGPU-Sim PTX: 100000 instructions simulated : ctaid=(112,0,0) tid=(95,0,0)
GPGPU-Sim uArch: cycles simulated: 500  inst.: 92160 (ipc=184.3) sim_rate=46080 (inst/sec) elapsed = 0:0:00:02 / Sun Feb 28 18:46:39 2016
GPGPU-Sim PTX: 200000 instructions simulated : ctaid=(101,0,0) tid=(31,0,0)
GPGPU-Sim PTX: 300000 instructions simulated : ctaid=(72,0,0) tid=(95,0,0)
GPGPU-Sim PTX: 400000 instructions simulated : ctaid=(52,0,0) tid=(95,0,0)
GPGPU-Sim uArch: cycles simulated: 1500  inst.: 425376 (ipc=283.6) sim_rate=141792 (inst/sec) elapsed = 0:0:00:03 / Sun Feb 28 18:46:40 2016
GPGPU-Sim PTX: 500000 instructions simulated : ctaid=(112,0,0) tid=(63,0,0)
GPGPU-Sim uArch: cycles simulated: 2500  inst.: 571168 (ipc=228.5) sim_rate=142792 (inst/sec) elapsed = 0:0:00:04 / Sun Feb 28 18:46:41 2016
GPGPU-Sim PTX: 600000 instructions simulated : ctaid=(62,0,0) tid=(63,0,0)
GPGPU-Sim PTX: 700000 instructions simulated : ctaid=(32,0,0) tid=(31,0,0)
GPGPU-Sim PTX: 800000 instructions simulated : ctaid=(15,0,0) tid=(63,0,0)
GPGPU-Sim PTX: 900000 instructions simulated : ctaid=(28,0,0) tid=(63,0,0)
GPGPU-Sim PTX: 1000000 instructions simulated : ctaid=(66,0,0) tid=(63,0,0)
GPGPU-Sim PTX: 1100000 instructions simulated : ctaid=(78,0,0) tid=(95,0,0)
GPGPU-Sim uArch: cycles simulated: 3500  inst.: 1089920 (ipc=311.4) sim_rate=217984 (inst/sec) elapsed = 0:0:00:05 / Sun Feb 28 18:46:42 2016
GPGPU-Sim PTX: 1200000 instructions simulated : ctaid=(39,0,0) tid=(127,0,0)
GPGPU-Sim PTX: 1300000 instructions simulated : ctaid=(91,0,0) tid=(127,0,0)
GPGPU-Sim PTX: 1400000 instructions simulated : ctaid=(65,0,0) tid=(63,0,0)
GPGPU-Sim PTX: 1500000 instructions simulated : ctaid=(88,0,0) tid=(63,0,0)
GPGPU-Sim PTX: 1600000 instructions simulated : ctaid=(46,0,0) tid=(31,0,0)
GPGPU-Sim PTX: 1700000 instructions simulated : ctaid=(104,0,0) tid=(63,0,0)
GPGPU-Sim PTX: 1800000 instructions simulated : ctaid=(100,0,0) tid=(127,0,0)
GPGPU-Sim uArch: cycles simulated: 4500  inst.: 1768608 (ipc=393.0) sim_rate=294768 (inst/sec) elapsed = 0:0:00:06 / Sun Feb 28 18:46:43 2016
GPGPU-Sim PTX: 1900000 instructions simulated : ctaid=(29,0,0) tid=(31,0,0)
GPGPU-Sim uArch: cycles simulated: 5000  inst.: 1927712 (ipc=385.5) sim_rate=275387 (inst/sec) elapsed = 0:0:00:07 / Sun Feb 28 18:46:44 2016
GPGPU-Sim PTX: 2000000 instructions simulated : ctaid=(21,0,0) tid=(95,0,0)
GPGPU-Sim PTX: 2100000 instructions simulated : ctaid=(31,0,0) tid=(95,0,0)
GPGPU-Sim PTX: 2200000 instructions simulated : ctaid=(109,0,0) tid=(127,0,0)
GPGPU-Sim PTX: 2300000 instructions simulated : ctaid=(2,0,0) tid=(95,0,0)
GPGPU-Sim PTX: 2400000 instructions simulated : ctaid=(5,0,0) tid=(127,0,0)
GPGPU-Sim PTX: 2500000 instructions simulated : ctaid=(13,0,0) tid=(63,0,0)
GPGPU-Sim PTX: 2600000 instructions simulated : ctaid=(81,0,0) tid=(95,0,0)
GPGPU-Sim uArch: cycles simulated: 6000  inst.: 2645280 (ipc=440.9) sim_rate=330660 (inst/sec) elapsed = 0:0:00:08 / Sun Feb 28 18:46:45 2016
GPGPU-Sim PTX: 2700000 instructions simulated : ctaid=(53,0,0) tid=(31,0,0)
GPGPU-Sim PTX: 2800000 instructions simulated : ctaid=(74,0,0) tid=(95,0,0)
GPGPU-Sim PTX: 2900000 instructions simulated : ctaid=(103,0,0) tid=(63,0,0)
GPGPU-Sim PTX: 3000000 instructions simulated : ctaid=(16,0,0) tid=(127,0,0)
GPGPU-Sim uArch: cycles simulated: 6500  inst.: 2994176 (ipc=460.6) sim_rate=332686 (inst/sec) elapsed = 0:0:00:09 / Sun Feb 28 18:46:46 2016
GPGPU-Sim PTX: 3100000 instructions simulated : ctaid=(26,0,0) tid=(31,0,0)
GPGPU-Sim PTX: 3200000 instructions simulated : ctaid=(52,0,0) tid=(63,0,0)
GPGPU-Sim PTX: 3300000 instructions simulated : ctaid=(4,0,0) tid=(127,0,0)
GPGPU-Sim uArch: cycles simulated: 7000  inst.: 3324736 (ipc=475.0) sim_rate=332473 (inst/sec) elapsed = 0:0:00:10 / Sun Feb 28 18:46:47 2016
GPGPU-Sim PTX: 3400000 instructions simulated : ctaid=(25,0,0) tid=(95,0,0)
GPGPU-Sim PTX: 3500000 instructions simulated : ctaid=(3,0,0) tid=(127,0,0)
GPGPU-Sim PTX: 3600000 instructions simulated : ctaid=(65,0,0) tid=(95,0,0)
GPGPU-Sim PTX: 3700000 instructions simulated : ctaid=(82,0,0) tid=(63,0,0)
GPGPU-Sim PTX: 3800000 instructions simulated : ctaid=(44,0,0) tid=(63,0,0)
GPGPU-Sim PTX: 3900000 instructions simulated : ctaid=(34,0,0) tid=(63,0,0)
GPGPU-Sim PTX: 4000000 instructions simulated : ctaid=(50,0,0) tid=(127,0,0)
GPGPU-Sim uArch: cycles simulated: 8000  inst.: 4025088 (ipc=503.1) sim_rate=365917 (inst/sec) elapsed = 0:0:00:11 / Sun Feb 28 18:46:48 2016
GPGPU-Sim PTX: 4100000 instructions simulated : ctaid=(76,0,0) tid=(127,0,0)
GPGPU-Sim PTX: 4200000 instructions simulated : ctaid=(72,0,0) tid=(31,0,0)
GPGPU-Sim PTX: 4300000 instructions simulated : ctaid=(43,0,0) tid=(95,0,0)
GPGPU-Sim PTX: 4400000 instructions simulated : ctaid=(7,0,0) tid=(95,0,0)
GPGPU-Sim uArch: cycles simulated: 8500  inst.: 4380832 (ipc=515.4) sim_rate=365069 (inst/sec) elapsed = 0:0:00:12 / Sun Feb 28 18:46:49 2016
GPGPU-Sim PTX: 4500000 instructions simulated : ctaid=(17,0,0) tid=(127,0,0)
GPGPU-Sim PTX: 4600000 instructions simulated : ctaid=(66,0,0) tid=(95,0,0)
GPGPU-Sim PTX: 4700000 instructions simulated : ctaid=(32,0,0) tid=(127,0,0)
GPGPU-Sim PTX: 4800000 instructions simulated : ctaid=(84,0,0) tid=(31,0,0)
GPGPU-Sim PTX: 4900000 instructions simulated : ctaid=(19,0,0) tid=(63,0,0)
GPGPU-Sim PTX: 5000000 instructions simulated : ctaid=(65,0,0) tid=(127,0,0)
GPGPU-Sim PTX: 5100000 instructions simulated : ctaid=(34,0,0) tid=(95,0,0)
GPGPU-Sim uArch: cycles simulated: 9500  inst.: 5110176 (ipc=537.9) sim_rate=393090 (inst/sec) elapsed = 0:0:00:13 / Sun Feb 28 18:46:50 2016
GPGPU-Sim PTX: 5200000 instructions simulated : ctaid=(42,0,0) tid=(31,0,0)
GPGPU-Sim PTX: 5300000 instructions simulated : ctaid=(2,0,0) tid=(127,0,0)
GPGPU-Sim PTX: 5400000 instructions simulated : ctaid=(46,0,0) tid=(31,0,0)
GPGPU-Sim PTX: 5500000 instructions simulated : ctaid=(26,0,0) tid=(127,0,0)
GPGPU-Sim uArch: cycles simulated: 10000  inst.: 5471936 (ipc=547.2) sim_rate=390852 (inst/sec) elapsed = 0:0:00:14 / Sun Feb 28 18:46:51 2016
GPGPU-Sim PTX: 5600000 instructions simulated : ctaid=(78,0,0) tid=(31,0,0)
GPGPU-Sim PTX: 5700000 instructions simulated : ctaid=(21,0,0) tid=(127,0,0)
GPGPU-Sim PTX: 5800000 instructions simulated : ctaid=(49,0,0) tid=(95,0,0)
GPGPU-Sim uArch: cycles simulated: 10500  inst.: 5837664 (ipc=556.0) sim_rate=389177 (inst/sec) elapsed = 0:0:00:15 / Sun Feb 28 18:46:52 2016
GPGPU-Sim PTX: 5900000 instructions simulated : ctaid=(86,0,0) tid=(95,0,0)
GPGPU-Sim PTX: 6000000 instructions simulated : ctaid=(61,0,0) tid=(63,0,0)
GPGPU-Sim PTX: 6100000 instructions simulated : ctaid=(73,0,0) tid=(127,0,0)
GPGPU-Sim PTX: 6200000 instructions simulated : ctaid=(45,0,0) tid=(63,0,0)
GPGPU-Sim PTX: 6300000 instructions simulated : ctaid=(63,0,0) tid=(95,0,0)
GPGPU-Sim PTX: 6400000 instructions simulated : ctaid=(54,0,0) tid=(63,0,0)
GPGPU-Sim PTX: 6500000 instructions simulated : ctaid=(70,0,0) tid=(63,0,0)
GPGPU-Sim uArch: cycles simulated: 11500  inst.: 6555808 (ipc=570.1) sim_rate=409738 (inst/sec) elapsed = 0:0:00:16 / Sun Feb 28 18:46:53 2016
GPGPU-Sim PTX: 6600000 instructions simulated : ctaid=(9,0,0) tid=(95,0,0)
GPGPU-Sim PTX: 6700000 instructions simulated : ctaid=(32,0,0) tid=(63,0,0)
GPGPU-Sim PTX: 6800000 instructions simulated : ctaid=(90,0,0) tid=(31,0,0)
GPGPU-Sim PTX: 6900000 instructions simulated : ctaid=(57,0,0) tid=(95,0,0)
GPGPU-Sim uArch: cycles simulated: 12000  inst.: 6915360 (ipc=576.3) sim_rate=406785 (inst/sec) elapsed = 0:0:00:17 / Sun Feb 28 18:46:54 2016
GPGPU-Sim PTX: 7000000 instructions simulated : ctaid=(31,0,0) tid=(31,0,0)
GPGPU-Sim PTX: 7100000 instructions simulated : ctaid=(40,0,0) tid=(31,0,0)
GPGPU-Sim PTX: 7200000 instructions simulated : ctaid=(73,0,0) tid=(31,0,0)
GPGPU-Sim PTX: 7300000 instructions simulated : ctaid=(110,0,0) tid=(31,0,0)
GPGPU-Sim uArch: cycles simulated: 12500  inst.: 7278368 (ipc=582.3) sim_rate=404353 (inst/sec) elapsed = 0:0:00:18 / Sun Feb 28 18:46:55 2016
GPGPU-Sim PTX: 7400000 instructions simulated : ctaid=(10,0,0) tid=(127,0,0)
GPGPU-Sim PTX: 7500000 instructions simulated : ctaid=(14,0,0) tid=(31,0,0)
GPGPU-Sim PTX: 7600000 instructions simulated : ctaid=(8,0,0) tid=(127,0,0)
GPGPU-Sim uArch: cycles simulated: 13000  inst.: 7633344 (ipc=587.2) sim_rate=401754 (inst/sec) elapsed = 0:0:00:19 / Sun Feb 28 18:46:56 2016
GPGPU-Sim PTX: 7700000 instructions simulated : ctaid=(0,0,0) tid=(127,0,0)
GPGPU-Sim PTX: 7800000 instructions simulated : ctaid=(52,0,0) tid=(31,0,0)
GPGPU-Sim PTX: 7900000 instructions simulated : ctaid=(14,0,0) tid=(127,0,0)
GPGPU-Sim PTX: 8000000 instructions simulated : ctaid=(31,0,0) tid=(63,0,0)
GPGPU-Sim PTX: 8100000 instructions simulated : ctaid=(72,0,0) tid=(127,0,0)
GPGPU-Sim PTX: 8200000 instructions simulated : ctaid=(57,0,0) tid=(63,0,0)
GPGPU-Sim PTX: 8300000 instructions simulated : ctaid=(56,0,0) tid=(63,0,0)
GPGPU-Sim PTX: 8400000 instructions simulated : ctaid=(10,0,0) tid=(63,0,0)
GPGPU-Sim uArch: cycles simulated: 14000  inst.: 8369824 (ipc=597.8) sim_rate=418491 (inst/sec) elapsed = 0:0:00:20 / Sun Feb 28 18:46:57 2016
GPGPU-Sim PTX: 8500000 instructions simulated : ctaid=(92,0,0) tid=(95,0,0)
GPGPU-Sim PTX: 8600000 instructions simulated : ctaid=(69,0,0) tid=(31,0,0)
GPGPU-Sim PTX: 8700000 instructions simulated : ctaid=(24,0,0) tid=(127,0,0)
GPGPU-Sim uArch: cycles simulated: 14500  inst.: 8736000 (ipc=602.5) sim_rate=416000 (inst/sec) elapsed = 0:0:00:21 / Sun Feb 28 18:46:58 2016
GPGPU-Sim PTX: 8800000 instructions simulated : ctaid=(68,0,0) tid=(127,0,0)
GPGPU-Sim PTX: 8900000 instructions simulated : ctaid=(35,0,0) tid=(31,0,0)
GPGPU-Sim PTX: 9000000 instructions simulated : ctaid=(54,0,0) tid=(95,0,0)
GPGPU-Sim PTX: 9100000 instructions simulated : ctaid=(38,0,0) tid=(31,0,0)
GPGPU-Sim uArch: cycles simulated: 15000  inst.: 9098400 (ipc=606.6) sim_rate=413563 (inst/sec) elapsed = 0:0:00:22 / Sun Feb 28 18:46:59 2016
GPGPU-Sim PTX: 9200000 instructions simulated : ctaid=(4,0,0) tid=(95,0,0)
GPGPU-Sim PTX: 9300000 instructions simulated : ctaid=(13,0,0) tid=(127,0,0)
GPGPU-Sim PTX: 9400000 instructions simulated : ctaid=(22,0,0) tid=(63,0,0)
GPGPU-Sim uArch: cycles simulated: 15500  inst.: 9452480 (ipc=609.8) sim_rate=410977 (inst/sec) elapsed = 0:0:00:23 / Sun Feb 28 18:47:00 2016
GPGPU-Sim PTX: 9500000 instructions simulated : ctaid=(51,0,0) tid=(127,0,0)
GPGPU-Sim PTX: 9600000 instructions simulated : ctaid=(14,0,0) tid=(95,0,0)
GPGPU-Sim PTX: 9700000 instructions simulated : ctaid=(71,0,0) tid=(31,0,0)
GPGPU-Sim PTX: 9800000 instructions simulated : ctaid=(23,0,0) tid=(63,0,0)
GPGPU-Sim PTX: 9900000 instructions simulated : ctaid=(12,0,0) tid=(31,0,0)
GPGPU-Sim PTX: 10000000 instructions simulated : ctaid=(28,0,0) tid=(95,0,0)
GPGPU-Sim PTX: 10100000 instructions simulated : ctaid=(30,0,0) tid=(63,0,0)
GPGPU-Sim PTX: 10200000 instructions simulated : ctaid=(30,0,0) tid=(63,0,0)
GPGPU-Sim uArch: cycles simulated: 16500  inst.: 10173216 (ipc=616.6) sim_rate=423884 (inst/sec) elapsed = 0:0:00:24 / Sun Feb 28 18:47:01 2016
GPGPU-Sim PTX: 10300000 instructions simulated : ctaid=(12,0,0) tid=(95,0,0)
GPGPU-Sim PTX: 10400000 instructions simulated : ctaid=(21,0,0) tid=(95,0,0)
GPGPU-Sim PTX: 10500000 instructions simulated : ctaid=(60,0,0) tid=(127,0,0)
GPGPU-Sim uArch: cycles simulated: 17000  inst.: 10530624 (ipc=619.4) sim_rate=421224 (inst/sec) elapsed = 0:0:00:25 / Sun Feb 28 18:47:02 2016
GPGPU-Sim PTX: 10600000 instructions simulated : ctaid=(12,0,0) tid=(31,0,0)
GPGPU-Sim PTX: 10700000 instructions simulated : ctaid=(86,0,0) tid=(95,0,0)
GPGPU-Sim PTX: 10800000 instructions simulated : ctaid=(29,0,0) tid=(95,0,0)
GPGPU-Sim PTX: 10900000 instructions simulated : ctaid=(55,0,0) tid=(31,0,0)
GPGPU-Sim uArch: cycles simulated: 17500  inst.: 10891616 (ipc=622.4) sim_rate=418908 (inst/sec) elapsed = 0:0:00:26 / Sun Feb 28 18:47:03 2016
GPGPU-Sim PTX: 11000000 instructions simulated : ctaid=(88,0,0) tid=(127,0,0)
GPGPU-Sim PTX: 11100000 instructions simulated : ctaid=(41,0,0) tid=(31,0,0)
GPGPU-Sim PTX: 11200000 instructions simulated : ctaid=(2,0,0) tid=(63,0,0)
GPGPU-Sim PTX: 11300000 instructions simulated : ctaid=(18,0,0) tid=(95,0,0)
GPGPU-Sim PTX: 11400000 instructions simulated : ctaid=(27,0,0) tid=(63,0,0)
GPGPU-Sim PTX: 11500000 instructions simulated : ctaid=(19,0,0) tid=(127,0,0)
GPGPU-Sim PTX: 11600000 instructions simulated : ctaid=(81,0,0) tid=(95,0,0)
GPGPU-Sim uArch: cycles simulated: 18500  inst.: 11617216 (ipc=628.0) sim_rate=430267 (inst/sec) elapsed = 0:0:00:27 / Sun Feb 28 18:47:04 2016
GPGPU-Sim PTX: 11700000 instructions simulated : ctaid=(24,0,0) tid=(95,0,0)
GPGPU-Sim PTX: 11800000 instructions simulated : ctaid=(96,0,0) tid=(31,0,0)
GPGPU-Sim PTX: 11900000 instructions simulated : ctaid=(79,0,0) tid=(31,0,0)
GPGPU-Sim PTX: 12000000 instructions simulated : ctaid=(35,0,0) tid=(95,0,0)
GPGPU-Sim uArch: cycles simulated: 19000  inst.: 11977984 (ipc=630.4) sim_rate=427785 (inst/sec) elapsed = 0:0:00:28 / Sun Feb 28 18:47:05 2016
GPGPU-Sim PTX: 12100000 instructions simulated : ctaid=(48,0,0) tid=(127,0,0)
GPGPU-Sim PTX: 12200000 instructions simulated : ctaid=(8,0,0) tid=(95,0,0)
GPGPU-Sim PTX: 12300000 instructions simulated : ctaid=(43,0,0) tid=(63,0,0)
GPGPU-Sim uArch: cycles simulated: 19500  inst.: 12345088 (ipc=633.1) sim_rate=425692 (inst/sec) elapsed = 0:0:00:29 / Sun Feb 28 18:47:06 2016
GPGPU-Sim PTX: 12400000 instructions simulated : ctaid=(23,0,0) tid=(95,0,0)
GPGPU-Sim PTX: 12500000 instructions simulated : ctaid=(72,0,0) tid=(95,0,0)
GPGPU-Sim PTX: 12600000 instructions simulated : ctaid=(97,0,0) tid=(63,0,0)
GPGPU-Sim PTX: 12700000 instructions simulated : ctaid=(48,0,0) tid=(31,0,0)
GPGPU-Sim uArch: cycles simulated: 20000  inst.: 12709792 (ipc=635.5) sim_rate=423659 (inst/sec) elapsed = 0:0:00:30 / Sun Feb 28 18:47:07 2016
GPGPU-Sim PTX: 12800000 instructions simulated : ctaid=(24,0,0) tid=(127,0,0)
GPGPU-Sim PTX: 12900000 instructions simulated : ctaid=(42,0,0) tid=(31,0,0)
GPGPU-Sim PTX: 13000000 instructions simulated : ctaid=(63,0,0) tid=(127,0,0)
GPGPU-Sim PTX: 13100000 instructions simulated : ctaid=(17,0,0) tid=(127,0,0)
GPGPU-Sim uArch: cycles simulated: 20500  inst.: 13071488 (ipc=637.6) sim_rate=421660 (inst/sec) elapsed = 0:0:00:31 / Sun Feb 28 18:47:08 2016
GPGPU-Sim PTX: 13200000 instructions simulated : ctaid=(39,0,0) tid=(31,0,0)
GPGPU-Sim PTX: 13300000 instructions simulated : ctaid=(1,0,0) tid=(127,0,0)
GPGPU-Sim PTX: 13400000 instructions simulated : ctaid=(27,0,0) tid=(95,0,0)
GPGPU-Sim PTX: 13500000 instructions simulated : ctaid=(37,0,0) tid=(63,0,0)
GPGPU-Sim PTX: 13600000 instructions simulated : ctaid=(49,0,0) tid=(63,0,0)
GPGPU-Sim PTX: 13700000 instructions simulated : ctaid=(36,0,0) tid=(63,0,0)
GPGPU-Sim PTX: 13800000 instructions simulated : ctaid=(3,0,0) tid=(63,0,0)
GPGPU-Sim uArch: cycles simulated: 21500  inst.: 13787744 (ipc=641.3) sim_rate=430867 (inst/sec) elapsed = 0:0:00:32 / Sun Feb 28 18:47:09 2016
GPGPU-Sim PTX: 13900000 instructions simulated : ctaid=(73,0,0) tid=(31,0,0)
GPGPU-Sim PTX: 14000000 instructions simulated : ctaid=(73,0,0) tid=(95,0,0)
GPGPU-Sim PTX: 14100000 instructions simulated : ctaid=(24,0,0) tid=(31,0,0)
GPGPU-Sim uArch: cycles simulated: 22000  inst.: 14147616 (ipc=643.1) sim_rate=428715 (inst/sec) elapsed = 0:0:00:33 / Sun Feb 28 18:47:10 2016
GPGPU-Sim PTX: 14200000 instructions simulated : ctaid=(17,0,0) tid=(31,0,0)
GPGPU-Sim PTX: 14300000 instructions simulated : ctaid=(25,0,0) tid=(127,0,0)
GPGPU-Sim PTX: 14400000 instructions simulated : ctaid=(3,0,0) tid=(127,0,0)
GPGPU-Sim PTX: 14500000 instructions simulated : ctaid=(7,0,0) tid=(127,0,0)
GPGPU-Sim uArch: cycles simulated: 22500  inst.: 14514720 (ipc=645.1) sim_rate=426903 (inst/sec) elapsed = 0:0:00:34 / Sun Feb 28 18:47:11 2016
GPGPU-Sim PTX: 14600000 instructions simulated : ctaid=(35,0,0) tid=(63,0,0)
GPGPU-Sim PTX: 14700000 instructions simulated : ctaid=(52,0,0) tid=(127,0,0)
GPGPU-Sim PTX: 14800000 instructions simulated : ctaid=(9,0,0) tid=(95,0,0)
GPGPU-Sim PTX: 14900000 instructions simulated : ctaid=(10,0,0) tid=(31,0,0)
GPGPU-Sim uArch: cycles simulated: 23000  inst.: 14884640 (ipc=647.2) sim_rate=425275 (inst/sec) elapsed = 0:0:00:35 / Sun Feb 28 18:47:12 2016
GPGPU-Sim PTX: 15000000 instructions simulated : ctaid=(52,0,0) tid=(127,0,0)
GPGPU-Sim PTX: 15100000 instructions simulated : ctaid=(1,0,0) tid=(95,0,0)
GPGPU-Sim PTX: 15200000 instructions simulated : ctaid=(77,0,0) tid=(31,0,0)
GPGPU-Sim uArch: cycles simulated: 23500  inst.: 15237664 (ipc=648.4) sim_rate=423268 (inst/sec) elapsed = 0:0:00:36 / Sun Feb 28 18:47:13 2016
GPGPU-Sim PTX: 15300000 instructions simulated : ctaid=(64,0,0) tid=(31,0,0)
GPGPU-Sim PTX: 15400000 instructions simulated : ctaid=(3,0,0) tid=(127,0,0)
GPGPU-Sim PTX: 15500000 instructions simulated : ctaid=(65,0,0) tid=(127,0,0)
GPGPU-Sim PTX: 15600000 instructions simulated : ctaid=(5,0,0) tid=(31,0,0)
GPGPU-Sim uArch: cycles simulated: 24000  inst.: 15599200 (ipc=650.0) sim_rate=421600 (inst/sec) elapsed = 0:0:00:37 / Sun Feb 28 18:47:14 2016
GPGPU-Sim PTX: 15700000 instructions simulated : ctaid=(4,0,0) tid=(127,0,0)
GPGPU-Sim PTX: 15800000 instructions simulated : ctaid=(14,0,0) tid=(127,0,0)
GPGPU-Sim PTX: 15900000 instructions simulated : ctaid=(6,0,0) tid=(127,0,0)
GPGPU-Sim PTX: 16000000 instructions simulated : ctaid=(98,0,0) tid=(31,0,0)
GPGPU-Sim uArch: cycles simulated: 24500  inst.: 15965856 (ipc=651.7) sim_rate=420154 (inst/sec) elapsed = 0:0:00:38 / Sun Feb 28 18:47:15 2016
GPGPU-Sim PTX: 16100000 instructions simulated : ctaid=(66,0,0) tid=(31,0,0)
GPGPU-Sim PTX: 16200000 instructions simulated : ctaid=(41,0,0) tid=(63,0,0)
GPGPU-Sim PTX: 16300000 instructions simulated : ctaid=(57,0,0) tid=(63,0,0)
GPGPU-Sim uArch: cycles simulated: 25000  inst.: 16321504 (ipc=652.9) sim_rate=418500 (inst/sec) elapsed = 0:0:00:39 / Sun Feb 28 18:47:16 2016
GPGPU-Sim PTX: 16400000 instructions simulated : ctaid=(47,0,0) tid=(95,0,0)
GPGPU-Sim PTX: 16500000 instructions simulated : ctaid=(48,0,0) tid=(31,0,0)
GPGPU-Sim PTX: 16600000 instructions simulated : ctaid=(24,0,0) tid=(95,0,0)
GPGPU-Sim PTX: 16700000 instructions simulated : ctaid=(44,0,0) tid=(63,0,0)
GPGPU-Sim PTX: 16800000 instructions simulated : ctaid=(0,0,0) tid=(127,0,0)
GPGPU-Sim PTX: 16900000 instructions simulated : ctaid=(61,0,0) tid=(31,0,0)
GPGPU-Sim PTX: 17000000 instructions simulated : ctaid=(57,0,0) tid=(95,0,0)
GPGPU-Sim uArch: cycles simulated: 26000  inst.: 17034816 (ipc=655.2) sim_rate=425870 (inst/sec) elapsed = 0:0:00:40 / Sun Feb 28 18:47:17 2016
GPGPU-Sim PTX: 17100000 instructions simulated : ctaid=(27,0,0) tid=(63,0,0)
GPGPU-Sim PTX: 17200000 instructions simulated : ctaid=(19,0,0) tid=(95,0,0)
GPGPU-Sim PTX: 17300000 instructions simulated : ctaid=(86,0,0) tid=(63,0,0)
GPGPU-Sim PTX: 17400000 instructions simulated : ctaid=(23,0,0) tid=(127,0,0)
GPGPU-Sim uArch: cycles simulated: 26500  inst.: 17411776 (ipc=657.0) sim_rate=424677 (inst/sec) elapsed = 0:0:00:41 / Sun Feb 28 18:47:18 2016
GPGPU-Sim PTX: 17500000 instructions simulated : ctaid=(19,0,0) tid=(127,0,0)
GPGPU-Sim PTX: 17600000 instructions simulated : ctaid=(78,0,0) tid=(31,0,0)
GPGPU-Sim PTX: 17700000 instructions simulated : ctaid=(87,0,0) tid=(63,0,0)
GPGPU-Sim PTX: 17800000 instructions simulated : ctaid=(36,0,0) tid=(127,0,0)
GPGPU-Sim uArch: cycles simulated: 27000  inst.: 17770880 (ipc=658.2) sim_rate=423116 (inst/sec) elapsed = 0:0:00:42 / Sun Feb 28 18:47:19 2016
GPGPU-Sim PTX: 17900000 instructions simulated : ctaid=(32,0,0) tid=(95,0,0)
GPGPU-Sim PTX: 18000000 instructions simulated : ctaid=(1,0,0) tid=(63,0,0)
GPGPU-Sim PTX: 18100000 instructions simulated : ctaid=(31,0,0) tid=(127,0,0)
GPGPU-Sim uArch: cycles simulated: 27500  inst.: 18128736 (ipc=659.2) sim_rate=421598 (inst/sec) elapsed = 0:0:00:43 / Sun Feb 28 18:47:20 2016
GPGPU-Sim PTX: 18200000 instructions simulated : ctaid=(12,0,0) tid=(31,0,0)
GPGPU-Sim PTX: 18300000 instructions simulated : ctaid=(10,0,0) tid=(63,0,0)
GPGPU-Sim PTX: 18400000 instructions simulated : ctaid=(73,0,0) tid=(127,0,0)
GPGPU-Sim PTX: 18500000 instructions simulated : ctaid=(21,0,0) tid=(127,0,0)
GPGPU-Sim uArch: cycles simulated: 28000  inst.: 18498464 (ipc=660.7) sim_rate=420419 (inst/sec) elapsed = 0:0:00:44 / Sun Feb 28 18:47:21 2016
GPGPU-Sim PTX: 18600000 instructions simulated : ctaid=(46,0,0) tid=(63,0,0)
GPGPU-Sim PTX: 18700000 instructions simulated : ctaid=(5,0,0) tid=(95,0,0)
GPGPU-Sim PTX: 18800000 instructions simulated : ctaid=(67,0,0) tid=(63,0,0)
GPGPU-Sim uArch: cycles simulated: 28500  inst.: 18860544 (ipc=661.8) sim_rate=419123 (inst/sec) elapsed = 0:0:00:45 / Sun Feb 28 18:47:22 2016
GPGPU-Sim PTX: 18900000 instructions simulated : ctaid=(69,0,0) tid=(127,0,0)
GPGPU-Sim PTX: 19000000 instructions simulated : ctaid=(10,0,0) tid=(95,0,0)
GPGPU-Sim PTX: 19100000 instructions simulated : ctaid=(21,0,0) tid=(31,0,0)
GPGPU-Sim PTX: 19200000 instructions simulated : ctaid=(67,0,0) tid=(31,0,0)
GPGPU-Sim uArch: cycles simulated: 29000  inst.: 19217248 (ipc=662.7) sim_rate=417766 (inst/sec) elapsed = 0:0:00:46 / Sun Feb 28 18:47:23 2016
GPGPU-Sim PTX: 19300000 instructions simulated : ctaid=(28,0,0) tid=(95,0,0)
GPGPU-Sim PTX: 19400000 instructions simulated : ctaid=(69,0,0) tid=(95,0,0)
GPGPU-Sim PTX: 19500000 instructions simulated : ctaid=(89,0,0) tid=(31,0,0)
GPGPU-Sim PTX: 19600000 instructions simulated : ctaid=(44,0,0) tid=(31,0,0)
GPGPU-Sim uArch: cycles simulated: 29500  inst.: 19578144 (ipc=663.7) sim_rate=416556 (inst/sec) elapsed = 0:0:00:47 / Sun Feb 28 18:47:24 2016
GPGPU-Sim PTX: 19700000 instructions simulated : ctaid=(6,0,0) tid=(95,0,0)
GPGPU-Sim PTX: 19800000 instructions simulated : ctaid=(82,0,0) tid=(95,0,0)
GPGPU-Sim PTX: 19900000 instructions simulated : ctaid=(71,0,0) tid=(63,0,0)
GPGPU-Sim uArch: cycles simulated: 30000  inst.: 19943872 (ipc=664.8) sim_rate=415497 (inst/sec) elapsed = 0:0:00:48 / Sun Feb 28 18:47:25 2016
GPGPU-Sim PTX: 20000000 instructions simulated : ctaid=(39,0,0) tid=(31,0,0)
GPGPU-Sim PTX: 20100000 instructions simulated : ctaid=(42,0,0) tid=(95,0,0)
GPGPU-Sim PTX: 20200000 instructions simulated : ctaid=(16,0,0) tid=(95,0,0)
GPGPU-Sim PTX: 20300000 instructions simulated : ctaid=(21,0,0) tid=(31,0,0)
GPGPU-Sim uArch: cycles simulated: 30500  inst.: 20306368 (ipc=665.8) sim_rate=414415 (inst/sec) elapsed = 0:0:00:49 / Sun Feb 28 18:47:26 2016
GPGPU-Sim PTX: 20400000 instructions simulated : ctaid=(34,0,0) tid=(63,0,0)
GPGPU-Sim PTX: 20500000 instructions simulated : ctaid=(54,0,0) tid=(95,0,0)
GPGPU-Sim PTX: 20600000 instructions simulated : ctaid=(30,0,0) tid=(31,0,0)
GPGPU-Sim PTX: 20700000 instructions simulated : ctaid=(14,0,0) tid=(63,0,0)
GPGPU-Sim uArch: cycles simulated: 31000  inst.: 20667200 (ipc=666.7) sim_rate=413344 (inst/sec) elapsed = 0:0:00:50 / Sun Feb 28 18:47:27 2016
GPGPU-Sim PTX: 20800000 instructions simulated : ctaid=(4,0,0) tid=(95,0,0)
GPGPU-Sim PTX: 20900000 instructions simulated : ctaid=(23,0,0) tid=(95,0,0)
GPGPU-Sim PTX: 21000000 instructions simulated : ctaid=(6,0,0) tid=(95,0,0)
GPGPU-Sim PTX: 21100000 instructions simulated : ctaid=(24,0,0) tid=(31,0,0)
GPGPU-Sim PTX: 21200000 instructions simulated : ctaid=(6,0,0) tid=(63,0,0)
GPGPU-Sim PTX: 21300000 instructions simulated : ctaid=(91,0,0) tid=(31,0,0)
GPGPU-Sim PTX: 21400000 instructions simulated : ctaid=(88,0,0) tid=(31,0,0)
GPGPU-Sim uArch: cycles simulated: 32000  inst.: 21384736 (ipc=668.3) sim_rate=419308 (inst/sec) elapsed = 0:0:00:51 / Sun Feb 28 18:47:28 2016
GPGPU-Sim PTX: 21500000 instructions simulated : ctaid=(2,0,0) tid=(31,0,0)
GPGPU-Sim PTX: 21600000 instructions simulated : ctaid=(59,0,0) tid=(63,0,0)
GPGPU-Sim PTX: 21700000 instructions simulated : ctaid=(11,0,0) tid=(95,0,0)
GPGPU-Sim uArch: cycles simulated: 32500  inst.: 21749056 (ipc=669.2) sim_rate=418251 (inst/sec) elapsed = 0:0:00:52 / Sun Feb 28 18:47:29 2016
GPGPU-Sim PTX: 21800000 instructions simulated : ctaid=(38,0,0) tid=(127,0,0)
GPGPU-Sim PTX: 21900000 instructions simulated : ctaid=(39,0,0) tid=(95,0,0)
GPGPU-Sim PTX: 22000000 instructions simulated : ctaid=(36,0,0) tid=(63,0,0)
GPGPU-Sim PTX: 22100000 instructions simulated : ctaid=(21,0,0) tid=(31,0,0)
GPGPU-Sim uArch: cycles simulated: 33000  inst.: 22117952 (ipc=670.2) sim_rate=417319 (inst/sec) elapsed = 0:0:00:53 / Sun Feb 28 18:47:30 2016
GPGPU-Sim PTX: 22200000 instructions simulated : ctaid=(27,0,0) tid=(31,0,0)
GPGPU-Sim PTX: 22300000 instructions simulated : ctaid=(68,0,0) tid=(31,0,0)
GPGPU-Sim PTX: 22400000 instructions simulated : ctaid=(73,0,0) tid=(95,0,0)
GPGPU-Sim PTX: 22500000 instructions simulated : ctaid=(53,0,0) tid=(127,0,0)
GPGPU-Sim uArch: cycles simulated: 33500  inst.: 22480064 (ipc=671.0) sim_rate=416297 (inst/sec) elapsed = 0:0:00:54 / Sun Feb 28 18:47:31 2016
GPGPU-Sim PTX: 22600000 instructions simulated : ctaid=(75,0,0) tid=(63,0,0)
GPGPU-Sim PTX: 22700000 instructions simulated : ctaid=(43,0,0) tid=(63,0,0)
GPGPU-Sim PTX: 22800000 instructions simulated : ctaid=(28,0,0) tid=(95,0,0)
GPGPU-Sim uArch: cycles simulated: 34000  inst.: 22839712 (ipc=671.8) sim_rate=415267 (inst/sec) elapsed = 0:0:00:55 / Sun Feb 28 18:47:32 2016
GPGPU-Sim PTX: 22900000 instructions simulated : ctaid=(59,0,0) tid=(63,0,0)
GPGPU-Sim PTX: 23000000 instructions simulated : ctaid=(6,0,0) tid=(63,0,0)
GPGPU-Sim PTX: 23100000 instructions simulated : ctaid=(13,0,0) tid=(95,0,0)
GPGPU-Sim PTX: 23200000 instructions simulated : ctaid=(38,0,0) tid=(63,0,0)
GPGPU-Sim uArch: cycles simulated: 34500  inst.: 23202240 (ipc=672.5) sim_rate=414325 (inst/sec) elapsed = 0:0:00:56 / Sun Feb 28 18:47:33 2016
GPGPU-Sim PTX: 23300000 instructions simulated : ctaid=(76,0,0) tid=(31,0,0)
GPGPU-Sim PTX: 23400000 instructions simulated : ctaid=(42,0,0) tid=(31,0,0)
GPGPU-Sim PTX: 23500000 instructions simulated : ctaid=(3,0,0) tid=(127,0,0)
GPGPU-Sim uArch: cycles simulated: 35000  inst.: 23554880 (ipc=673.0) sim_rate=413243 (inst/sec) elapsed = 0:0:00:57 / Sun Feb 28 18:47:34 2016
GPGPU-Sim PTX: 23600000 instructions simulated : ctaid=(61,0,0) tid=(63,0,0)
GPGPU-Sim PTX: 23700000 instructions simulated : ctaid=(43,0,0) tid=(95,0,0)
GPGPU-Sim PTX: 23800000 instructions simulated : ctaid=(31,0,0) tid=(127,0,0)
GPGPU-Sim PTX: 23900000 instructions simulated : ctaid=(9,0,0) tid=(31,0,0)
GPGPU-Sim uArch: cycles simulated: 35500  inst.: 23922304 (ipc=673.9) sim_rate=412453 (inst/sec) elapsed = 0:0:00:58 / Sun Feb 28 18:47:35 2016
GPGPU-Sim PTX: 24000000 instructions simulated : ctaid=(62,0,0) tid=(63,0,0)
GPGPU-Sim PTX: 24100000 instructions simulated : ctaid=(42,0,0) tid=(63,0,0)
GPGPU-Sim PTX: 24200000 instructions simulated : ctaid=(37,0,0) tid=(63,0,0)
GPGPU-Sim PTX: 24300000 instructions simulated : ctaid=(75,0,0) tid=(31,0,0)
GPGPU-Sim uArch: cycles simulated: 36000  inst.: 24287360 (ipc=674.6) sim_rate=411650 (inst/sec) elapsed = 0:0:00:59 / Sun Feb 28 18:47:36 2016
GPGPU-Sim PTX: 24400000 instructions simulated : ctaid=(15,0,0) tid=(127,0,0)
GPGPU-Sim PTX: 24500000 instructions simulated : ctaid=(48,0,0) tid=(31,0,0)
GPGPU-Sim PTX: 24600000 instructions simulated : ctaid=(52,0,0) tid=(31,0,0)
GPGPU-Sim uArch: cycles simulated: 36500  inst.: 24646464 (ipc=675.2) sim_rate=410774 (inst/sec) elapsed = 0:0:01:00 / Sun Feb 28 18:47:37 2016
GPGPU-Sim PTX: 24700000 instructions simulated : ctaid=(24,0,0) tid=(31,0,0)
GPGPU-Sim PTX: 24800000 instructions simulated : ctaid=(0,0,0) tid=(31,0,0)
GPGPU-Sim PTX: 24900000 instructions simulated : ctaid=(7,0,0) tid=(63,0,0)
GPGPU-Sim PTX: 25000000 instructions simulated : ctaid=(21,0,0) tid=(31,0,0)
GPGPU-Sim uArch: cycles simulated: 37000  inst.: 25010144 (ipc=675.9) sim_rate=410002 (inst/sec) elapsed = 0:0:01:01 / Sun Feb 28 18:47:38 2016
GPGPU-Sim PTX: 25100000 instructions simulated : ctaid=(45,0,0) tid=(63,0,0)
GPGPU-Sim PTX: 25200000 instructions simulated : ctaid=(29,0,0) tid=(127,0,0)
GPGPU-Sim PTX: 25300000 instructions simulated : ctaid=(38,0,0) tid=(31,0,0)
GPGPU-Sim PTX: 25400000 instructions simulated : ctaid=(65,0,0) tid=(63,0,0)
GPGPU-Sim uArch: cycles simulated: 37500  inst.: 25373824 (ipc=676.6) sim_rate=409255 (inst/sec) elapsed = 0:0:01:02 / Sun Feb 28 18:47:39 2016
GPGPU-Sim PTX: 25500000 instructions simulated : ctaid=(2,0,0) tid=(95,0,0)
GPGPU-Sim PTX: 25600000 instructions simulated : ctaid=(76,0,0) tid=(31,0,0)
GPGPU-Sim PTX: 25700000 instructions simulated : ctaid=(44,0,0) tid=(95,0,0)
GPGPU-Sim uArch: cycles simulated: 38000  inst.: 25735392 (ipc=677.2) sim_rate=408498 (inst/sec) elapsed = 0:0:01:03 / Sun Feb 28 18:47:40 2016
GPGPU-Sim PTX: 25800000 instructions simulated : ctaid=(47,0,0) tid=(31,0,0)
GPGPU-Sim PTX: 25900000 instructions simulated : ctaid=(68,0,0) tid=(31,0,0)
GPGPU-Sim PTX: 26000000 instructions simulated : ctaid=(46,0,0) tid=(127,0,0)
GPGPU-Sim PTX: 26100000 instructions simulated : ctaid=(48,0,0) tid=(95,0,0)
GPGPU-Sim PTX: 26200000 instructions simulated : ctaid=(38,0,0) tid=(31,0,0)
GPGPU-Sim PTX: 26300000 instructions simulated : ctaid=(18,0,0) tid=(63,0,0)
GPGPU-Sim PTX: 26400000 instructions simulated : ctaid=(50,0,0) tid=(127,0,0)
GPGPU-Sim PTX: 26500000 instructions simulated : ctaid=(36,0,0) tid=(63,0,0)
GPGPU-Sim uArch: cycles simulated: 39000  inst.: 26470848 (ipc=678.7) sim_rate=413607 (inst/sec) elapsed = 0:0:01:04 / Sun Feb 28 18:47:41 2016
GPGPU-Sim PTX: 26600000 instructions simulated : ctaid=(22,0,0) tid=(95,0,0)
GPGPU-Sim PTX: 26700000 instructions simulated : ctaid=(63,0,0) tid=(127,0,0)
GPGPU-Sim PTX: 26800000 instructions simulated : ctaid=(82,0,0) tid=(63,0,0)
GPGPU-Sim uArch: cycles simulated: 39500  inst.: 26829376 (ipc=679.2) sim_rate=412759 (inst/sec) elapsed = 0:0:01:05 / Sun Feb 28 18:47:42 2016
GPGPU-Sim PTX: 26900000 instructions simulated : ctaid=(58,0,0) tid=(31,0,0)
GPGPU-Sim PTX: 27000000 instructions simulated : ctaid=(79,0,0) tid=(95,0,0)
GPGPU-Sim PTX: 27100000 instructions simulated : ctaid=(13,0,0) tid=(31,0,0)
GPGPU-Sim PTX: 27200000 instructions simulated : ctaid=(24,0,0) tid=(95,0,0)
GPGPU-Sim uArch: cycles simulated: 40000  inst.: 27186784 (ipc=679.7) sim_rate=411920 (inst/sec) elapsed = 0:0:01:06 / Sun Feb 28 18:47:43 2016
GPGPU-Sim PTX: 27300000 instructions simulated : ctaid=(66,0,0) tid=(31,0,0)
GPGPU-Sim PTX: 27400000 instructions simulated : ctaid=(32,0,0) tid=(31,0,0)
GPGPU-Sim PTX: 27500000 instructions simulated : ctaid=(56,0,0) tid=(63,0,0)
GPGPU-Sim uArch: cycles simulated: 40500  inst.: 27545792 (ipc=680.1) sim_rate=411131 (inst/sec) elapsed = 0:0:01:07 / Sun Feb 28 18:47:44 2016
GPGPU-Sim PTX: 27600000 instructions simulated : ctaid=(77,0,0) tid=(31,0,0)
GPGPU-Sim PTX: 27700000 instructions simulated : ctaid=(69,0,0) tid=(127,0,0)
GPGPU-Sim PTX: 27800000 instructions simulated : ctaid=(46,0,0) tid=(63,0,0)
GPGPU-Sim PTX: 27900000 instructions simulated : ctaid=(67,0,0) tid=(31,0,0)
GPGPU-Sim uArch: cycles simulated: 41000  inst.: 27908256 (ipc=680.7) sim_rate=410415 (inst/sec) elapsed = 0:0:01:08 / Sun Feb 28 18:47:45 2016
GPGPU-Sim PTX: 28000000 instructions simulated : ctaid=(47,0,0) tid=(127,0,0)
GPGPU-Sim PTX: 28100000 instructions simulated : ctaid=(65,0,0) tid=(31,0,0)
GPGPU-Sim PTX: 28200000 instructions simulated : ctaid=(68,0,0) tid=(31,0,0)
GPGPU-Sim uArch: cycles simulated: 41500  inst.: 28263968 (ipc=681.1) sim_rate=409622 (inst/sec) elapsed = 0:0:01:09 / Sun Feb 28 18:47:46 2016
GPGPU-Sim PTX: 28300000 instructions simulated : ctaid=(26,0,0) tid=(63,0,0)
GPGPU-Sim PTX: 28400000 instructions simulated : ctaid=(55,0,0) tid=(95,0,0)
GPGPU-Sim PTX: 28500000 instructions simulated : ctaid=(37,0,0) tid=(63,0,0)
GPGPU-Sim PTX: 28600000 instructions simulated : ctaid=(50,0,0) tid=(95,0,0)
GPGPU-Sim uArch: cycles simulated: 42000  inst.: 28626944 (ipc=681.6) sim_rate=408956 (inst/sec) elapsed = 0:0:01:10 / Sun Feb 28 18:47:47 2016
GPGPU-Sim PTX: 28700000 instructions simulated : ctaid=(34,0,0) tid=(63,0,0)
GPGPU-Sim PTX: 28800000 instructions simulated : ctaid=(60,0,0) tid=(95,0,0)
GPGPU-Sim PTX: 28900000 instructions simulated : ctaid=(60,0,0) tid=(63,0,0)
GPGPU-Sim PTX: 29000000 instructions simulated : ctaid=(68,0,0) tid=(127,0,0)
GPGPU-Sim uArch: cycles simulated: 42500  inst.: 28995488 (ipc=682.2) sim_rate=408387 (inst/sec) elapsed = 0:0:01:11 / Sun Feb 28 18:47:48 2016
GPGPU-Sim PTX: 29100000 instructions simulated : ctaid=(86,0,0) tid=(95,0,0)
GPGPU-Sim PTX: 29200000 instructions simulated : ctaid=(10,0,0) tid=(95,0,0)
GPGPU-Sim PTX: 29300000 instructions simulated : ctaid=(37,0,0) tid=(127,0,0)
GPGPU-Sim uArch: cycles simulated: 43000  inst.: 29352224 (ipc=682.6) sim_rate=407669 (inst/sec) elapsed = 0:0:01:12 / Sun Feb 28 18:47:49 2016
GPGPU-Sim PTX: 29400000 instructions simulated : ctaid=(72,0,0) tid=(95,0,0)
GPGPU-Sim PTX: 29500000 instructions simulated : ctaid=(50,0,0) tid=(95,0,0)
GPGPU-Sim PTX: 29600000 instructions simulated : ctaid=(4,0,0) tid=(95,0,0)
GPGPU-Sim PTX: 29700000 instructions simulated : ctaid=(34,0,0) tid=(63,0,0)
GPGPU-Sim uArch: cycles simulated: 43500  inst.: 29713440 (ipc=683.1) sim_rate=407033 (inst/sec) elapsed = 0:0:01:13 / Sun Feb 28 18:47:50 2016
GPGPU-Sim PTX: 29800000 instructions simulated : ctaid=(1,0,0) tid=(31,0,0)
GPGPU-Sim PTX: 29900000 instructions simulated : ctaid=(52,0,0) tid=(63,0,0)
GPGPU-Sim PTX: 30000000 instructions simulated : ctaid=(27,0,0) tid=(127,0,0)
GPGPU-Sim PTX: 30100000 instructions simulated : ctaid=(83,0,0) tid=(127,0,0)
GPGPU-Sim PTX: 30200000 instructions simulated : ctaid=(65,0,0) tid=(63,0,0)
GPGPU-Sim PTX: 30300000 instructions simulated : ctaid=(74,0,0) tid=(63,0,0)
GPGPU-Sim PTX: 30400000 instructions simulated : ctaid=(61,0,0) tid=(95,0,0)
GPGPU-Sim uArch: cycles simulated: 44500  inst.: 30431232 (ipc=683.8) sim_rate=411232 (inst/sec) elapsed = 0:0:01:14 / Sun Feb 28 18:47:51 2016
GPGPU-Sim PTX: 30500000 instructions simulated : ctaid=(36,0,0) tid=(95,0,0)
GPGPU-Sim PTX: 30600000 instructions simulated : ctaid=(64,0,0) tid=(95,0,0)
GPGPU-Sim PTX: 30700000 instructions simulated : ctaid=(38,0,0) tid=(31,0,0)
GPGPU-Sim PTX: 30800000 instructions simulated : ctaid=(28,0,0) tid=(127,0,0)
GPGPU-Sim uArch: cycles simulated: 45000  inst.: 30804160 (ipc=684.5) sim_rate=410722 (inst/sec) elapsed = 0:0:01:15 / Sun Feb 28 18:47:52 2016
GPGPU-Sim PTX: 30900000 instructions simulated : ctaid=(71,0,0) tid=(63,0,0)
GPGPU-Sim PTX: 31000000 instructions simulated : ctaid=(17,0,0) tid=(31,0,0)
GPGPU-Sim PTX: 31100000 instructions simulated : ctaid=(17,0,0) tid=(31,0,0)
GPGPU-Sim PTX: 31200000 instructions simulated : ctaid=(74,0,0) tid=(31,0,0)
GPGPU-Sim uArch: cycles simulated: 45500  inst.: 31174752 (ipc=685.2) sim_rate=410194 (inst/sec) elapsed = 0:0:01:16 / Sun Feb 28 18:47:53 2016
GPGPU-Sim PTX: 31300000 instructions simulated : ctaid=(26,0,0) tid=(127,0,0)
GPGPU-Sim PTX: 31400000 instructions simulated : ctaid=(61,0,0) tid=(95,0,0)
GPGPU-Sim PTX: 31500000 instructions simulated : ctaid=(75,0,0) tid=(31,0,0)
GPGPU-Sim uArch: cycles simulated: 46000  inst.: 31541408 (ipc=685.7) sim_rate=409628 (inst/sec) elapsed = 0:0:01:17 / Sun Feb 28 18:47:54 2016
GPGPU-Sim PTX: 31600000 instructions simulated : ctaid=(19,0,0) tid=(127,0,0)
GPGPU-Sim PTX: 31700000 instructions simulated : ctaid=(105,0,0) tid=(95,0,0)
GPGPU-Sim PTX: 31800000 instructions simulated : ctaid=(101,0,0) tid=(95,0,0)
GPGPU-Sim PTX: 31900000 instructions simulated : ctaid=(42,0,0) tid=(63,0,0)
GPGPU-Sim uArch: cycles simulated: 46500  inst.: 31903232 (ipc=686.1) sim_rate=409015 (inst/sec) elapsed = 0:0:01:18 / Sun Feb 28 18:47:55 2016
GPGPU-Sim PTX: 32000000 instructions simulated : ctaid=(106,0,0) tid=(63,0,0)
GPGPU-Sim PTX: 32100000 instructions simulated : ctaid=(16,0,0) tid=(63,0,0)
GPGPU-Sim PTX: 32200000 instructions simulated : ctaid=(83,0,0) tid=(127,0,0)
GPGPU-Sim uArch: Shader 11 finished CTA #0 (46951,0), 7 CTAs running
GPGPU-Sim uArch: core: 11, cta: 0 initialized @(46952,0)
GPGPU-Sim PTX: 32300000 instructions simulated : ctaid=(31,0,0) tid=(127,0,0)
GPGPU-Sim uArch: cycles simulated: 47000  inst.: 32271872 (ipc=686.6) sim_rate=408504 (inst/sec) elapsed = 0:0:01:19 / Sun Feb 28 18:47:56 2016
GPGPU-Sim PTX: 32400000 instructions simulated : ctaid=(41,0,0) tid=(63,0,0)
GPGPU-Sim uArch: Shader 2 finished CTA #0 (47160,0), 7 CTAs running
GPGPU-Sim uArch: core:  2, cta: 0 initialized @(47161,0)
GPGPU-Sim PTX: 32500000 instructions simulated : ctaid=(22,0,0) tid=(63,0,0)
GPGPU-Sim uArch: Shader 13 finished CTA #0 (47377,0), 7 CTAs running
GPGPU-Sim uArch: core: 13, cta: 0 initialized @(47378,0)
GPGPU-Sim PTX: 32600000 instructions simulated : ctaid=(69,0,0) tid=(95,0,0)
GPGPU-Sim PTX: 32700000 instructions simulated : ctaid=(113,0,0) tid=(31,0,0)
GPGPU-Sim uArch: Shader 7 finished CTA #0 (47651,0), 7 CTAs running
GPGPU-Sim uArch: core:  7, cta: 0 initialized @(47652,0)
GPGPU-Sim uArch: Shader 3 finished CTA #0 (47664,0), 7 CTAs running
GPGPU-Sim uArch: core:  3, cta: 0 initialized @(47665,0)
GPGPU-Sim PTX: 32800000 instructions simulated : ctaid=(77,0,0) tid=(63,0,0)
GPGPU-Sim uArch: Shader 0 finished CTA #0 (47714,0), 7 CTAs running
GPGPU-Sim uArch: core:  0, cta: 0 initialized @(47715,0)
GPGPU-Sim uArch: Shader 10 finished CTA #0 (47724,0), 7 CTAs running
GPGPU-Sim uArch: core: 10, cta: 0 initialized @(47725,0)
GPGPU-Sim uArch: Shader 4 finished CTA #0 (47751,0), 7 CTAs running
GPGPU-Sim uArch: core:  4, cta: 0 initialized @(47752,0)
GPGPU-Sim PTX: 32900000 instructions simulated : ctaid=(27,0,0) tid=(63,0,0)
GPGPU-Sim uArch: Shader 1 finished CTA #0 (47816,0), 7 CTAs running
GPGPU-Sim uArch: core:  1, cta: 0 initialized @(47817,0)
GPGPU-Sim uArch: Shader 5 finished CTA #0 (47885,0), 7 CTAs running
GPGPU-Sim uArch: core:  5, cta: 0 initialized @(47886,0)
GPGPU-Sim PTX: 33000000 instructions simulated : ctaid=(68,0,0) tid=(63,0,0)
GPGPU-Sim uArch: Shader 8 finished CTA #0 (47933,0), 7 CTAs running
GPGPU-Sim uArch: core:  8, cta: 0 initialized @(47934,0)
GPGPU-Sim uArch: cycles simulated: 48000  inst.: 33015520 (ipc=687.8) sim_rate=412694 (inst/sec) elapsed = 0:0:01:20 / Sun Feb 28 18:47:57 2016
GPGPU-Sim uArch: Shader 12 finished CTA #0 (48058,0), 7 CTAs running
GPGPU-Sim uArch: core: 12, cta: 0 initialized @(48059,0)
GPGPU-Sim PTX: 33100000 instructions simulated : ctaid=(51,0,0) tid=(63,0,0)
GPGPU-Sim uArch: Shader 14 finished CTA #0 (48108,0), 7 CTAs running
GPGPU-Sim uArch: core: 14, cta: 0 initialized @(48109,0)
GPGPU-Sim PTX: 33200000 instructions simulated : ctaid=(51,0,0) tid=(31,0,0)
GPGPU-Sim uArch: Shader 9 finished CTA #0 (48201,0), 7 CTAs running
GPGPU-Sim uArch: core:  9, cta: 0 initialized @(48202,0)
GPGPU-Sim uArch: Shader 6 finished CTA #0 (48238,0), 7 CTAs running
GPGPU-Sim uArch: core:  6, cta: 0 initialized @(48239,0)
GPGPU-Sim PTX: 33300000 instructions simulated : ctaid=(61,0,0) tid=(95,0,0)
GPGPU-Sim PTX: 33400000 instructions simulated : ctaid=(77,0,0) tid=(63,0,0)
GPGPU-Sim uArch: cycles simulated: 48500  inst.: 33395168 (ipc=688.6) sim_rate=412286 (inst/sec) elapsed = 0:0:01:21 / Sun Feb 28 18:47:58 2016
GPGPU-Sim PTX: 33500000 instructions simulated : ctaid=(71,0,0) tid=(31,0,0)
GPGPU-Sim PTX: 33600000 instructions simulated : ctaid=(68,0,0) tid=(31,0,0)
GPGPU-Sim PTX: 33700000 instructions simulated : ctaid=(57,0,0) tid=(31,0,0)
GPGPU-Sim PTX: 33800000 instructions simulated : ctaid=(72,0,0) tid=(31,0,0)
GPGPU-Sim uArch: cycles simulated: 49000  inst.: 33762432 (ipc=689.0) sim_rate=411736 (inst/sec) elapsed = 0:0:01:22 / Sun Feb 28 18:47:59 2016
GPGPU-Sim uArch: Shader 2 finished CTA #1 (49115,0), 7 CTAs running
GPGPU-Sim uArch: core:  2, cta: 1 initialized @(49116,0)
GPGPU-Sim PTX: 33900000 instructions simulated : ctaid=(95,0,0) tid=(95,0,0)
GPGPU-Sim PTX: 34000000 instructions simulated : ctaid=(93,0,0) tid=(95,0,0)
GPGPU-Sim uArch: Shader 5 finished CTA #1 (49295,0), 7 CTAs running
GPGPU-Sim uArch: core:  5, cta: 1 initialized @(49296,0)
GPGPU-Sim PTX: 34100000 instructions simulated : ctaid=(55,0,0) tid=(127,0,0)
GPGPU-Sim uArch: cycles simulated: 49500  inst.: 34119232 (ipc=689.3) sim_rate=411075 (inst/sec) elapsed = 0:0:01:23 / Sun Feb 28 18:48:00 2016
GPGPU-Sim PTX: 34200000 instructions simulated : ctaid=(118,0,0) tid=(127,0,0)
GPGPU-Sim uArch: Shader 10 finished CTA #1 (49695,0), 7 CTAs running
GPGPU-Sim uArch: core: 10, cta: 1 initialized @(49696,0)
GPGPU-Sim PTX: 34300000 instructions simulated : ctaid=(51,0,0) tid=(63,0,0)
GPGPU-Sim uArch: Shader 0 finished CTA #1 (49734,0), 7 CTAs running
GPGPU-Sim uArch: core:  0, cta: 1 initialized @(49735,0)
GPGPU-Sim uArch: Shader 4 finished CTA #1 (49741,0), 7 CTAs running
GPGPU-Sim uArch: core:  4, cta: 1 initialized @(49742,0)
GPGPU-Sim uArch: Shader 14 finished CTA #1 (49780,0), 7 CTAs running
GPGPU-Sim uArch: core: 14, cta: 1 initialized @(49781,0)
GPGPU-Sim PTX: 34400000 instructions simulated : ctaid=(113,0,0) tid=(95,0,0)
GPGPU-Sim uArch: Shader 11 finished CTA #1 (49865,0), 7 CTAs running
GPGPU-Sim uArch: core: 11, cta: 1 initialized @(49866,0)
GPGPU-Sim PTX: 34500000 instructions simulated : ctaid=(17,0,0) tid=(127,0,0)
GPGPU-Sim uArch: cycles simulated: 50000  inst.: 34483392 (ipc=689.7) sim_rate=410516 (inst/sec) elapsed = 0:0:01:24 / Sun Feb 28 18:48:01 2016
GPGPU-Sim uArch: Shader 7 finished CTA #1 (50052,0), 7 CTAs running
GPGPU-Sim uArch: core:  7, cta: 1 initialized @(50053,0)
GPGPU-Sim PTX: 34600000 instructions simulated : ctaid=(56,0,0) tid=(63,0,0)
GPGPU-Sim uArch: Shader 6 finished CTA #1 (50150,0), 7 CTAs running
GPGPU-Sim uArch: core:  6, cta: 1 initialized @(50151,0)
GPGPU-Sim uArch: Shader 8 finished CTA #1 (50153,0), 7 CTAs running
GPGPU-Sim uArch: core:  8, cta: 1 initialized @(50154,0)
GPGPU-Sim uArch: Shader 13 finished CTA #1 (50198,0), 7 CTAs running
GPGPU-Sim uArch: core: 13, cta: 1 initialized @(50199,0)
GPGPU-Sim PTX: 34700000 instructions simulated : ctaid=(51,0,0) tid=(127,0,0)
GPGPU-Sim uArch: Shader 12 finished CTA #1 (50228,0), 7 CTAs running
GPGPU-Sim uArch: core: 12, cta: 1 initialized @(50229,0)
GPGPU-Sim PTX: 34800000 instructions simulated : ctaid=(55,0,0) tid=(127,0,0)
GPGPU-Sim uArch: Shader 9 finished CTA #1 (50396,0), 7 CTAs running
GPGPU-Sim uArch: core:  9, cta: 1 initialized @(50397,0)
GPGPU-Sim PTX: 34900000 instructions simulated : ctaid=(69,0,0) tid=(63,0,0)
GPGPU-Sim uArch: cycles simulated: 50500  inst.: 34864544 (ipc=690.4) sim_rate=410171 (inst/sec) elapsed = 0:0:01:25 / Sun Feb 28 18:48:02 2016
GPGPU-Sim uArch: Shader 1 finished CTA #1 (50524,0), 7 CTAs running
GPGPU-Sim uArch: core:  1, cta: 1 initialized @(50525,0)
GPGPU-Sim uArch: Shader 3 finished CTA #1 (50610,0), 7 CTAs running
GPGPU-Sim uArch: core:  3, cta: 1 initialized @(50611,0)
GPGPU-Sim PTX: 35000000 instructions simulated : ctaid=(76,0,0) tid=(95,0,0)
GPGPU-Sim PTX: 35100000 instructions simulated : ctaid=(62,0,0) tid=(63,0,0)
GPGPU-Sim PTX: 35200000 instructions simulated : ctaid=(60,0,0) tid=(95,0,0)
GPGPU-Sim uArch: cycles simulated: 51000  inst.: 35241376 (ipc=691.0) sim_rate=409783 (inst/sec) elapsed = 0:0:01:26 / Sun Feb 28 18:48:03 2016
GPGPU-Sim PTX: 35300000 instructions simulated : ctaid=(50,0,0) tid=(127,0,0)
GPGPU-Sim PTX: 35400000 instructions simulated : ctaid=(100,0,0) tid=(63,0,0)
GPGPU-Sim PTX: 35500000 instructions simulated : ctaid=(85,0,0) tid=(127,0,0)
GPGPU-Sim PTX: 35600000 instructions simulated : ctaid=(83,0,0) tid=(31,0,0)
GPGPU-Sim uArch: cycles simulated: 51500  inst.: 35602528 (ipc=691.3) sim_rate=409224 (inst/sec) elapsed = 0:0:01:27 / Sun Feb 28 18:48:04 2016
GPGPU-Sim PTX: 35700000 instructions simulated : ctaid=(86,0,0) tid=(63,0,0)
GPGPU-Sim PTX: 35800000 instructions simulated : ctaid=(113,0,0) tid=(95,0,0)
GPGPU-Sim PTX: 35900000 instructions simulated : ctaid=(92,0,0) tid=(95,0,0)
GPGPU-Sim uArch: cycles simulated: 52000  inst.: 35951680 (ipc=691.4) sim_rate=408541 (inst/sec) elapsed = 0:0:01:28 / Sun Feb 28 18:48:05 2016
GPGPU-Sim PTX: 36000000 instructions simulated : ctaid=(98,0,0) tid=(31,0,0)
GPGPU-Sim PTX: 36100000 instructions simulated : ctaid=(111,0,0) tid=(95,0,0)
GPGPU-Sim uArch: Shader 3 finished CTA #2 (52256,0), 7 CTAs running
GPGPU-Sim uArch: core:  3, cta: 2 initialized @(52257,0)
GPGPU-Sim PTX: 36200000 instructions simulated : ctaid=(97,0,0) tid=(63,0,0)
GPGPU-Sim PTX: 36300000 instructions simulated : ctaid=(87,0,0) tid=(31,0,0)
GPGPU-Sim PTX: 36400000 instructions simulated : ctaid=(103,0,0) tid=(127,0,0)
GPGPU-Sim PTX: 36500000 instructions simulated : ctaid=(79,0,0) tid=(95,0,0)
GPGPU-Sim uArch: Shader 10 finished CTA #2 (52746,0), 7 CTAs running
GPGPU-Sim uArch: core: 10, cta: 2 initialized @(52747,0)
GPGPU-Sim PTX: 36600000 instructions simulated : ctaid=(100,0,0) tid=(127,0,0)
GPGPU-Sim PTX: 36700000 instructions simulated : ctaid=(82,0,0) tid=(127,0,0)
GPGPU-Sim uArch: Shader 4 finished CTA #2 (52979,0), 7 CTAs running
GPGPU-Sim uArch: core:  4, cta: 2 initialized @(52980,0)
GPGPU-Sim uArch: cycles simulated: 53000  inst.: 36676544 (ipc=692.0) sim_rate=412096 (inst/sec) elapsed = 0:0:01:29 / Sun Feb 28 18:48:06 2016
GPGPU-Sim PTX: 36800000 instructions simulated : ctaid=(146,0,0) tid=(31,0,0)
GPGPU-Sim uArch: Shader 0 finished CTA #2 (53155,0), 7 CTAs running
GPGPU-Sim uArch: core:  0, cta: 2 initialized @(53156,0)
GPGPU-Sim PTX: 36900000 instructions simulated : ctaid=(68,0,0) tid=(95,0,0)
GPGPU-Sim PTX: 37000000 instructions simulated : ctaid=(128,0,0) tid=(95,0,0)
GPGPU-Sim uArch: cycles simulated: 53500  inst.: 37037408 (ipc=692.3) sim_rate=411526 (inst/sec) elapsed = 0:0:01:30 / Sun Feb 28 18:48:07 2016
GPGPU-Sim uArch: Shader 1 finished CTA #2 (53516,0), 7 CTAs running
GPGPU-Sim uArch: core:  1, cta: 2 initialized @(53517,0)
GPGPU-Sim PTX: 37100000 instructions simulated : ctaid=(49,0,0) tid=(63,0,0)
GPGPU-Sim uArch: Shader 9 finished CTA #2 (53613,0), 7 CTAs running
GPGPU-Sim uArch: core:  9, cta: 2 initialized @(53614,0)
GPGPU-Sim uArch: Shader 11 finished CTA #2 (53635,0), 7 CTAs running
GPGPU-Sim uArch: core: 11, cta: 2 initialized @(53636,0)
GPGPU-Sim PTX: 37200000 instructions simulated : ctaid=(125,0,0) tid=(95,0,0)
GPGPU-Sim PTX: 37300000 instructions simulated : ctaid=(117,0,0) tid=(31,0,0)
GPGPU-Sim uArch: Shader 5 finished CTA #2 (53877,0), 7 CTAs running
GPGPU-Sim uArch: core:  5, cta: 2 initialized @(53878,0)
GPGPU-Sim uArch: Shader 2 finished CTA #2 (53895,0), 7 CTAs running
GPGPU-Sim uArch: core:  2, cta: 2 initialized @(53896,0)
GPGPU-Sim PTX: 37400000 instructions simulated : ctaid=(134,0,0) tid=(95,0,0)
GPGPU-Sim uArch: cycles simulated: 54000  inst.: 37408448 (ipc=692.7) sim_rate=411081 (inst/sec) elapsed = 0:0:01:31 / Sun Feb 28 18:48:08 2016
GPGPU-Sim uArch: Shader 12 finished CTA #2 (54036,0), 7 CTAs running
GPGPU-Sim uArch: core: 12, cta: 2 initialized @(54037,0)
GPGPU-Sim PTX: 37500000 instructions simulated : ctaid=(121,0,0) tid=(63,0,0)
GPGPU-Sim uArch: Shader 13 finished CTA #2 (54082,0), 7 CTAs running
GPGPU-Sim uArch: core: 13, cta: 2 initialized @(54083,0)
GPGPU-Sim uArch: Shader 6 finished CTA #2 (54093,0), 7 CTAs running
GPGPU-Sim uArch: core:  6, cta: 2 initialized @(54094,0)
GPGPU-Sim PTX: 37600000 instructions simulated : ctaid=(127,0,0) tid=(95,0,0)
GPGPU-Sim PTX: 37700000 instructions simulated : ctaid=(80,0,0) tid=(63,0,0)
GPGPU-Sim PTX: 37800000 instructions simulated : ctaid=(58,0,0) tid=(127,0,0)
GPGPU-Sim uArch: cycles simulated: 54500  inst.: 37774016 (ipc=693.1) sim_rate=410587 (inst/sec) elapsed = 0:0:01:32 / Sun Feb 28 18:48:09 2016
GPGPU-Sim uArch: Shader 7 finished CTA #2 (54562,0), 7 CTAs running
GPGPU-Sim uArch: core:  7, cta: 2 initialized @(54563,0)
GPGPU-Sim uArch: Shader 14 finished CTA #2 (54604,0), 7 CTAs running
GPGPU-Sim uArch: core: 14, cta: 2 initialized @(54605,0)
GPGPU-Sim PTX: 37900000 instructions simulated : ctaid=(86,0,0) tid=(31,0,0)
GPGPU-Sim PTX: 38000000 instructions simulated : ctaid=(115,0,0) tid=(31,0,0)
GPGPU-Sim PTX: 38100000 instructions simulated : ctaid=(117,0,0) tid=(63,0,0)
GPGPU-Sim uArch: cycles simulated: 55000  inst.: 38139648 (ipc=693.4) sim_rate=410103 (inst/sec) elapsed = 0:0:01:33 / Sun Feb 28 18:48:10 2016
GPGPU-Sim PTX: 38200000 instructions simulated : ctaid=(108,0,0) tid=(31,0,0)
GPGPU-Sim PTX: 38300000 instructions simulated : ctaid=(105,0,0) tid=(127,0,0)
GPGPU-Sim uArch: Shader 8 finished CTA #2 (55175,0), 7 CTAs running
GPGPU-Sim uArch: core:  8, cta: 2 initialized @(55176,0)
GPGPU-Sim PTX: 38400000 instructions simulated : ctaid=(101,0,0) tid=(31,0,0)
GPGPU-Sim PTX: 38500000 instructions simulated : ctaid=(123,0,0) tid=(31,0,0)
GPGPU-Sim PTX: 38600000 instructions simulated : ctaid=(101,0,0) tid=(95,0,0)
GPGPU-Sim PTX: 38700000 instructions simulated : ctaid=(148,0,0) tid=(127,0,0)
GPGPU-Sim PTX: 38800000 instructions simulated : ctaid=(128,0,0) tid=(31,0,0)
GPGPU-Sim PTX: 38900000 instructions simulated : ctaid=(106,0,0) tid=(95,0,0)
GPGPU-Sim uArch: cycles simulated: 56000  inst.: 38872352 (ipc=694.1) sim_rate=413535 (inst/sec) elapsed = 0:0:01:34 / Sun Feb 28 18:48:11 2016
GPGPU-Sim PTX: 39000000 instructions simulated : ctaid=(77,0,0) tid=(31,0,0)
GPGPU-Sim PTX: 39100000 instructions simulated : ctaid=(95,0,0) tid=(127,0,0)
GPGPU-Sim PTX: 39200000 instructions simulated : ctaid=(149,0,0) tid=(31,0,0)
GPGPU-Sim uArch: cycles simulated: 56500  inst.: 39227520 (ipc=694.3) sim_rate=412921 (inst/sec) elapsed = 0:0:01:35 / Sun Feb 28 18:48:12 2016
GPGPU-Sim PTX: 39300000 instructions simulated : ctaid=(131,0,0) tid=(63,0,0)
GPGPU-Sim PTX: 39400000 instructions simulated : ctaid=(95,0,0) tid=(31,0,0)
GPGPU-Sim PTX: 39500000 instructions simulated : ctaid=(95,0,0) tid=(127,0,0)
GPGPU-Sim PTX: 39600000 instructions simulated : ctaid=(85,0,0) tid=(63,0,0)
GPGPU-Sim uArch: cycles simulated: 57000  inst.: 39587328 (ipc=694.5) sim_rate=412368 (inst/sec) elapsed = 0:0:01:36 / Sun Feb 28 18:48:13 2016
GPGPU-Sim PTX: 39700000 instructions simulated : ctaid=(100,0,0) tid=(95,0,0)
GPGPU-Sim PTX: 39800000 instructions simulated : ctaid=(83,0,0) tid=(63,0,0)
GPGPU-Sim PTX: 39900000 instructions simulated : ctaid=(106,0,0) tid=(31,0,0)
GPGPU-Sim uArch: cycles simulated: 57500  inst.: 39946592 (ipc=694.7) sim_rate=411820 (inst/sec) elapsed = 0:0:01:37 / Sun Feb 28 18:48:14 2016
GPGPU-Sim PTX: 40000000 instructions simulated : ctaid=(76,0,0) tid=(63,0,0)
GPGPU-Sim PTX: 40100000 instructions simulated : ctaid=(141,0,0) tid=(31,0,0)
GPGPU-Sim PTX: 40200000 instructions simulated : ctaid=(96,0,0) tid=(31,0,0)
GPGPU-Sim PTX: 40300000 instructions simulated : ctaid=(123,0,0) tid=(95,0,0)
GPGPU-Sim PTX: 40400000 instructions simulated : ctaid=(153,0,0) tid=(31,0,0)
GPGPU-Sim PTX: 40500000 instructions simulated : ctaid=(95,0,0) tid=(127,0,0)
GPGPU-Sim PTX: 40600000 instructions simulated : ctaid=(86,0,0) tid=(127,0,0)
GPGPU-Sim PTX: 40700000 instructions simulated : ctaid=(58,0,0) tid=(127,0,0)
GPGPU-Sim uArch: cycles simulated: 58500  inst.: 40674144 (ipc=695.3) sim_rate=415042 (inst/sec) elapsed = 0:0:01:38 / Sun Feb 28 18:48:15 2016
GPGPU-Sim PTX: 40800000 instructions simulated : ctaid=(71,0,0) tid=(63,0,0)
GPGPU-Sim PTX: 40900000 instructions simulated : ctaid=(160,0,0) tid=(95,0,0)
GPGPU-Sim PTX: 41000000 instructions simulated : ctaid=(156,0,0) tid=(31,0,0)
GPGPU-Sim uArch: cycles simulated: 59000  inst.: 41045952 (ipc=695.7) sim_rate=414605 (inst/sec) elapsed = 0:0:01:39 / Sun Feb 28 18:48:16 2016
GPGPU-Sim PTX: 41100000 instructions simulated : ctaid=(118,0,0) tid=(127,0,0)
GPGPU-Sim uArch: Shader 0 finished CTA #3 (59127,0), 7 CTAs running
GPGPU-Sim uArch: core:  0, cta: 3 initialized @(59128,0)
GPGPU-Sim PTX: 41200000 instructions simulated : ctaid=(107,0,0) tid=(95,0,0)
GPGPU-Sim uArch: Shader 3 finished CTA #3 (59223,0), 7 CTAs running
GPGPU-Sim uArch: core:  3, cta: 3 initialized @(59224,0)
GPGPU-Sim PTX: 41300000 instructions simulated : ctaid=(130,0,0) tid=(31,0,0)
GPGPU-Sim uArch: Shader 13 finished CTA #3 (59332,0), 7 CTAs running
GPGPU-Sim uArch: core: 13, cta: 3 initialized @(59333,0)
GPGPU-Sim PTX: 41400000 instructions simulated : ctaid=(151,0,0) tid=(127,0,0)
GPGPU-Sim uArch: cycles simulated: 59500  inst.: 41406336 (ipc=695.9) sim_rate=414063 (inst/sec) elapsed = 0:0:01:40 / Sun Feb 28 18:48:17 2016
GPGPU-Sim PTX: 41500000 instructions simulated : ctaid=(122,0,0) tid=(127,0,0)
GPGPU-Sim PTX: 41600000 instructions simulated : ctaid=(101,0,0) tid=(31,0,0)
GPGPU-Sim uArch: Shader 6 finished CTA #3 (59708,0), 7 CTAs running
GPGPU-Sim uArch: core:  6, cta: 3 initialized @(59709,0)
GPGPU-Sim PTX: 41700000 instructions simulated : ctaid=(163,0,0) tid=(95,0,0)
GPGPU-Sim PTX: 41800000 instructions simulated : ctaid=(97,0,0) tid=(63,0,0)
[...]
maxmrqlatency = 551 
maxdqlatency = 0 
maxmflatency = 1097 
averagemflatency = 323 
max_icnt2mem_latency = 508 
max_icnt2sh_latency = 284716 
mrq_lat_table:159742 	8952 	8891 	23380 	72978 	86446 	60416 	15981 	719 	4 	0 	0 	0 	0 	0 	0 	0 	0 	0 	0 	0 	0 	0 	0 	0 	0 	0 	0 	0 	0 	0 	0 	
dq_lat_table:0 	0 	0 	0 	0 	0 	0 	0 	0 	0 	0 	0 	0 	0 	0 	0 	0 	0 	0 	0 	0 	0 	0 	0 	0 	0 	0 	0 	0 	0 	0 	0 	
mf_lat_table:0 	0 	0 	0 	0 	0 	0 	926 	308580 	3006 	3 	0 	0 	0 	0 	0 	0 	0 	0 	0 	0 	0 	0 	0 	0 	0 	0 	0 	0 	0 	0 	0 	
icnt2mem_lat_table:0 	0 	0 	229830 	76993 	4164 	1177 	400 	71 	0 	0 	0 	0 	0 	0 	0 	0 	0 	0 	0 	0 	0 	0 	0 	
icnt2sh_lat_table:0 	0 	0 	102127 	78169 	7146 	73 	0 	0 	0 	0 	80 	1995 	3774 	7635 	15270 	30416 	60746 	5084 	0 	0 	0 	0 	0 	
mf_lat_pw_table:0 	0 	0 	0 	0 	0 	0 	0 	566 	1 	0 	0 	0 	0 	0 	0 	0 	0 	0 	0 	0 	0 	0 	0 	0 	0 	0 	0 	0 	0 	0 	0 	
maximum concurrent accesses to same row:
dram[0]:        32        31        14        14        20        20        36        32        16        12        32        30        32        30        16        12 
dram[1]:        32        31        14        14        20        20        34        32        18        10        28        26        32        30        20        10 
dram[2]:        32        32        16        14        20        24        36        32        20        22        30        28        32        30        20        14 
dram[3]:        32        32        14        14        20        24        32        32        14         8        28        26        32        30        16        12 
dram[4]:        32        32        14        26        20        24        36        32        14        28        32        28        30        30        14        32 
dram[5]:        32        32        14        14        20        30        32        32         6        14        30        28        30        30        10        14 
maximum service time to same row:
dram[0]:      3250      3285      3551      3740      3954      3592      2605      2600      5275      4301      2366      2390      2635      2914      5859      4596 
dram[1]:      3083      3167      3980      3879      3960      2747      3085      2612      4992      4163      3288      2399      3091      2775      5760      4474 
dram[2]:      1850      3162      3928      3996      3516      3531      2597      2671      4191      3890      2357      2604      2567      2710      4530      4573 
dram[3]:      3173      3157      3647      3686      4207      3320      3200      2619      4155      3746      3151      2358      3215      2412      4452      4529 
dram[4]:      3279      3182      3819      4052      2681      4010      2743      2588      4138      3983      2513      2499      2946      2842      4619      4429 
dram[5]:      3177      3390      3800      3500      2843      3458      2603      3422      4053      3932      2567      3369      2873      3465      4625      4416 
average row accesses per activate:
dram[0]:  1.612869  1.598025  1.583714  1.584826  1.620307  1.595213  1.640731  1.605051  1.584488  1.594981  1.640731  1.605614  1.616390  1.595537  1.599441  1.596650 
dram[1]:  1.569007  1.548872  1.538357  1.533129  1.567082  1.557388  1.591652  1.568735  1.551186  1.535055  1.566587  1.563375  1.558583  1.562842  1.538151  1.536086 
dram[2]:  1.631655  1.618571  1.579279  1.575969  1.607662  1.613087  1.639556  1.641320  1.591652  1.584488  1.627890  1.643088  1.622695  1.605051  1.603926  1.596650 
dram[3]:  1.558763  1.575800  1.538881  1.538881  1.547286  1.556623  1.585036  1.574673  1.535571  1.530435  1.563375  1.573590  1.573049  1.563910  1.537118  1.544381 
dram[4]:  1.602686  1.621467  1.581493  1.597734  1.605384  1.611940  1.636039  1.634286  1.581203  1.592760  1.607871  1.615249  1.612971  1.607306  1.591099  1.601680 
dram[5]:  1.556471  1.568709  1.539932  1.537308  1.555251  1.567381  1.568735  1.582296  1.541260  1.536086  1.569811  1.569811  1.558583  1.561775  1.545424  1.543860 
average row locality = 437509/276705 = 1.581139
number of total memory accesses made:
dram[0]:         0         0         0         0         0         0         0         0         0         0         0         0         0         0         0         0 
dram[1]:         0         0         0         0         0         0         0         0         0         0         0         0         0         0         0         0 
dram[2]:         0         0         0         0         0         0         0         0         0         0         0         0         0         0         0         0 
dram[3]:         0         0         0         0         0         0         0         0         0         0         0         0         0         0         0         0 
dram[4]:         0         0         0         0         0         0         0         0         0         0         0         0         0         0         0         0 
dram[5]:         0         0         0         0         0         0         0         0         0         0         0         0         0         0         0         0 
total accesses: 0
min_bank_accesses = 0!
min_chip_accesses = 0!
number of total read accesses:
dram[0]:      3251      3246      3232      3232      3242      3242      3264      3264      3264      3264      3264      3264      3264      3264      3264      3264 
dram[1]:      3250      3246      3232      3232      3242      3242      3264      3264      3264      3264      3264      3264      3264      3264      3264      3264 
dram[2]:      3250      3246      3232      3232      3242      3244      3264      3264      3264      3264      3264      3264      3264      3264      3264      3264 
dram[3]:      3250      3246      3232      3232      3242      3244      3264      3264      3264      3264      3264      3264      3264      3264      3264      3264 
dram[4]:      3248      3246      3232      3232      3242      3244      3264      3264      3264      3264      3264      3264      3264      3264      3264      3264 
dram[5]:      3248      3246      3232      3232      3242      3244      3264      3264      3264      3264      3264      3264      3264      3264      3264      3264 
total reads: 312509
bank skew: 3264/3232 = 1.01
chip skew: 52086/52084 = 1.00
number of total write accesses:
dram[0]:      1286      1286      1280      1280      1290      1290      1312      1312      1312      1312      1312      1312      1312      1312      1312      1312 
dram[1]:      1286      1286      1280      1280      1290      1290      1312      1312      1312      1312      1312      1312      1312      1312      1312      1312 
dram[2]:      1286      1286      1280      1280      1290      1292      1312      1312      1312      1312      1312      1312      1312      1312      1312      1312 
dram[3]:      1286      1286      1280      1280      1290      1292      1312      1312      1312      1312      1312      1312      1312      1312      1312      1312 
dram[4]:      1286      1286      1280      1280      1290      1292      1312      1312      1312      1312      1312      1312      1312      1312      1312      1312 
dram[5]:      1286      1286      1280      1280      1290      1292      1312      1312      1312      1312      1312      1312      1312      1312      1312      1312 
total reads: 125000
bank skew: 1312/1280 = 1.02
chip skew: 20834/20832 = 1.00
average mf latency per bank:
dram[0]:        235       231       229       229       234       230       235       234       226       229       231       231       233       231       232       233
dram[1]:        230       230       229       232       228       231       233       233       228       229       230       230       232       231       231       232
dram[2]:        233       232       230       231       231       232       236       235       228       229       230       235       233       234       233       233
dram[3]:        228       232       227       229       230       231       230       234       227       229       227       231       229       232       232       234
dram[4]:        228       230       230       230       231       232       233       234       227       228       228       230       230       229       232       232
dram[5]:        228       231       229       230       230       232       231       233       226       227       233       231       230       230       232       234
maximum mf latency per bank:
dram[0]:        794       843       634       603       824       818       767       847       584       634       825       874       789       921       696       684
dram[1]:        822       742       757       609       762       736       784       711       586       570       736       758       688       737       848       585
dram[2]:        843       848       607       559       839       796       853       864       729       717       857       840       945       869       718       829
dram[3]:        616       807       529       530       784       680       577       669       572       567       738       745       733       725       675       773
dram[4]:        875       872       594       612       862       813       788       707       590       643       862       752      1006       761       613       664
dram[5]:        762       750       557       634       768      1097       731       657       578       592       762       810       806       893       778       643

Number of Memory Banks Accessed per Memory Operation per Warp (from 0):
0	0	0	0	0	0	0	0	0	0	0	0	0	0	0	0	0	0	0	0	0	0	0	0	0	0	0	0	0	0	0	0	0	0	0	0	0	0	0	0	0	0	0	0	0	0	0	0	0	0	0	0	0	0	0	0	0	0	0	0	0	0	0	0	0	0	0	0	0	0	0	0	0	0	0	0	0	0	0	0	0	0	0	0	0	0	0	0	0	0	0	0	0	0	0	0	
Average # of Memory Banks Accessed per Memory Operation per Warp=-nan

position of mrq chosen
0	0	0	0	0	0	0	0	0	0	0	0	0	0	0	0	

average position of mrq chosen = -nan
Memory Partition 0: 
Cache L2_bank_000:
MSHR contents

Cache L2_bank_001:
MSHR contents

In Dram Latency Queue (total = 0): 
DRAM[0]: 16 bks, busW=8 BL=8 CL=12, tRRD=2 tCCD=6, tRCD=12 tRAS=28 tRP=12 tRC=40
n_cmd=375826 n_nop=212035 n_act=45445 n_pre=45429 n_req=72917 n_rd=52085 n_write=20832 bw_util=0.388
n_activity=364715 dram_eff=0.3999
bk0: 3251a 216441i bk1: 3246a 217285i bk2: 3232a 214225i bk3: 3232a 212996i bk4: 3242a 212417i bk5: 3242a 211746i bk6: 3264a 210004i bk7: 3264a 207776i bk8: 3264a 216539i bk9: 3264a 213357i bk10: 3264a 215075i bk11: 3264a 212027i bk12: 3264a 209503i bk13: 3264a 208673i bk14: 3264a 205134i bk15: 3264a 205356i 
dram_util_bins: 0 0 0 0 0 0 0 0 0 0
dram_eff_bins: 0 0 0 0 0 0 0 0 0 0
mrqq: max=16 avg=8.28379
Memory Partition 1: 
Cache L2_bank_002:
MSHR contents

Cache L2_bank_003:
MSHR contents

In Dram Latency Queue (total = 0): 
DRAM[1]: 16 bks, busW=8 BL=8 CL=12, tRRD=2 tCCD=6, tRCD=12 tRAS=28 tRP=12 tRC=40
n_cmd=375826 n_nop=209158 n_act=46884 n_pre=46868 n_req=72916 n_rd=52084 n_write=20832 bw_util=0.388
n_activity=368596 dram_eff=0.3956
bk0: 3250a 213913i bk1: 3246a 211688i bk2: 3232a 207700i bk3: 3232a 207675i bk4: 3242a 208068i bk5: 3242a 205729i bk6: 3264a 204283i bk7: 3264a 199730i bk8: 3264a 210636i bk9: 3264a 207498i bk10: 3264a 208942i bk11: 3264a 208302i bk12: 3264a 205628i bk13: 3264a 204620i bk14: 3264a 201461i bk15: 3264a 198517i 
dram_util_bins: 0 0 0 0 0 0 0 0 0 0
dram_eff_bins: 0 0 0 0 0 0 0 0 0 0
mrqq: max=16 avg=8.05068
Memory Partition 2: 
Cache L2_bank_004:
MSHR contents

Cache L2_bank_005:
MSHR contents

In Dram Latency Queue (total = 0): 
DRAM[2]: 16 bks, busW=8 BL=8 CL=12, tRRD=2 tCCD=6, tRCD=12 tRAS=28 tRP=12 tRC=40
n_cmd=375826 n_nop=212404 n_act=45259 n_pre=45243 n_req=72920 n_rd=52086 n_write=20834 bw_util=0.3881
n_activity=364002 dram_eff=0.4007
bk0: 3250a 217673i bk1: 3246a 216140i bk2: 3232a 214124i bk3: 3232a 211628i bk4: 3242a 213982i bk5: 3244a 211655i bk6: 3264a 207752i bk7: 3264a 207458i bk8: 3264a 216310i bk9: 3264a 213601i bk10: 3264a 216499i bk11: 3264a 210682i bk12: 3264a 211174i bk13: 3264a 207966i bk14: 3264a 205033i bk15: 3264a 205323i 
dram_util_bins: 0 0 0 0 0 0 0 0 0 0
dram_eff_bins: 0 0 0 0 0 0 0 0 0 0
mrqq: max=16 avg=8.34587
Memory Partition 3: 
Cache L2_bank_006:
MSHR contents

Cache L2_bank_007:
MSHR contents
MSHR: tag=0x80f1f980, atomic=0 1 entries : 0x7f0b58e37ff0 :  mf: uid=3593219, sid00:w31, part=3, addr=0x80f1f980, load , size=128, unknown  status = IN_PARTITION_DRAM (284712), 

In Dram Latency Queue (total = 0): 
DRAM[3]: 16 bks, busW=8 BL=8 CL=12, tRRD=2 tCCD=6, tRCD=12 tRAS=28 tRP=12 tRC=40
n_cmd=375826 n_nop=209190 n_act=46866 n_pre=46850 n_req=72920 n_rd=52086 n_write=20834 bw_util=0.3881
n_activity=368168 dram_eff=0.3961
bk0: 3250a 215261i bk1: 3246a 211927i bk2: 3232a 210443i bk3: 3232a 208475i bk4: 3242a 208707i bk5: 3244a 205441i bk6: 3264a 205712i bk7: 3264a 199846i bk8: 3264a 209339i bk9: 3264a 208221i bk10: 3264a 209194i bk11: 3264a 208474i bk12: 3264a 207571i bk13: 3264a 202267i bk14: 3264a 200199i bk15: 3264a 198039i 
dram_util_bins: 0 0 0 0 0 0 0 0 0 0
dram_eff_bins: 0 0 0 0 0 0 0 0 0 0
mrqq: max=16 avg=8.09469
Memory Partition 4: 
Cache L2_bank_008:
MSHR contents

Cache L2_bank_009:
MSHR contents

In Dram Latency Queue (total = 0): 
DRAM[4]: 16 bks, busW=8 BL=8 CL=12, tRRD=2 tCCD=6, tRCD=12 tRAS=28 tRP=12 tRC=40
n_cmd=375826 n_nop=212128 n_act=45398 n_pre=45382 n_req=72918 n_rd=52084 n_write=20834 bw_util=0.388
n_activity=364622 dram_eff=0.4
bk0: 3248a 219551i bk1: 3246a 215696i bk2: 3232a 212839i bk3: 3232a 211525i bk4: 3242a 211026i bk5: 3244a 209159i bk6: 3264a 207661i bk7: 3264a 205699i bk8: 3264a 216255i bk9: 3264a 212341i bk10: 3264a 214190i bk11: 3264a 211613i bk12: 3264a 211433i bk13: 3264a 208214i bk14: 3264a 206635i bk15: 3264a 203861i 
dram_util_bins: 0 0 0 0 0 0 0 0 0 0
dram_eff_bins: 0 0 0 0 0 0 0 0 0 0
mrqq: max=16 avg=8.07192
Memory Partition 5: 
Cache L2_bank_010:
MSHR contents

Cache L2_bank_011:
MSHR contents

In Dram Latency Queue (total = 0): 
DRAM[5]: 16 bks, busW=8 BL=8 CL=12, tRRD=2 tCCD=6, tRCD=12 tRAS=28 tRP=12 tRC=40
n_cmd=375826 n_nop=209218 n_act=46853 n_pre=46837 n_req=72918 n_rd=52084 n_write=20834 bw_util=0.388
n_activity=368357 dram_eff=0.3959
bk0: 3248a 214315i bk1: 3246a 210085i bk2: 3232a 208888i bk3: 3232a 206595i bk4: 3242a 206562i bk5: 3244a 205506i bk6: 3264a 204748i bk7: 3264a 200194i bk8: 3264a 210330i bk9: 3264a 208093i bk10: 3264a 207193i bk11: 3264a 205888i bk12: 3264a 204645i bk13: 3264a 203548i bk14: 3264a 201724i bk15: 3264a 198081i 
dram_util_bins: 0 0 0 0 0 0 0 0 0 0
dram_eff_bins: 0 0 0 0 0 0 0 0 0 0
mrqq: max=16 avg=8.02683

========= L2 cache stats =========
L2_cache_bank[0]: Access = 26087, Miss = 26045, Miss_rate = 0.998, Pending_hits = 9, Reservation_fails = 1554
L2_cache_bank[1]: Access = 26040, Miss = 26040, Miss_rate = 1.000, Pending_hits = 0, Reservation_fails = 771
L2_cache_bank[2]: Access = 26072, Miss = 26044, Miss_rate = 0.999, Pending_hits = 5, Reservation_fails = 829
L2_cache_bank[3]: Access = 26040, Miss = 26040, Miss_rate = 1.000, Pending_hits = 0, Reservation_fails = 625
L2_cache_bank[4]: Access = 26072, Miss = 26044, Miss_rate = 0.999, Pending_hits = 6, Reservation_fails = 1417
L2_cache_bank[5]: Access = 26042, Miss = 26042, Miss_rate = 1.000, Pending_hits = 0, Reservation_fails = 1207
L2_cache_bank[6]: Access = 26072, Miss = 26044, Miss_rate = 0.999, Pending_hits = 6, Reservation_fails = 743
L2_cache_bank[7]: Access = 26042, Miss = 26042, Miss_rate = 1.000, Pending_hits = 0, Reservation_fails = 797
L2_cache_bank[8]: Access = 26042, Miss = 26042, Miss_rate = 1.000, Pending_hits = 0, Reservation_fails = 808
L2_cache_bank[9]: Access = 26042, Miss = 26042, Miss_rate = 1.000, Pending_hits = 0, Reservation_fails = 629
L2_cache_bank[10]: Access = 26042, Miss = 26042, Miss_rate = 1.000, Pending_hits = 0, Reservation_fails = 462
L2_cache_bank[11]: Access = 26042, Miss = 26042, Miss_rate = 1.000, Pending_hits = 0, Reservation_fails = 557
L2_total_cache_accesses = 312635
L2_total_cache_misses = 312509
L2_total_cache_miss_rate = 0.9996
L2_total_cache_pending_hits = 26
L2_total_cache_reservation_fails = 10399
L2_total_cache_breakdown:
	L2_cache_stats_breakdown[GLOBAL_ACC_R][MISS] = 187500
	L2_cache_stats_breakdown[GLOBAL_ACC_R][RESERVATION_FAIL] = 6768
	L2_cache_stats_breakdown[CONST_ACC_R][HIT] = 11
	L2_cache_stats_breakdown[CONST_ACC_R][HIT_RESERVED] = 3
	L2_cache_stats_breakdown[CONST_ACC_R][MISS] = 1
	L2_cache_stats_breakdown[CONST_ACC_R][RESERVATION_FAIL] = 106
	L2_cache_stats_breakdown[GLOBAL_ACC_W][MISS] = 125000
	L2_cache_stats_breakdown[GLOBAL_ACC_W][RESERVATION_FAIL] = 2898
	L2_cache_stats_breakdown[INST_ACC_R][HIT] = 89
	L2_cache_stats_breakdown[INST_ACC_R][HIT_RESERVED] = 23
	L2_cache_stats_breakdown[INST_ACC_R][MISS] = 8
	L2_cache_stats_breakdown[INST_ACC_R][RESERVATION_FAIL] = 627
L2_cache_data_port_util = 0.000
L2_cache_fill_port_util = 0.366

icnt_total_pkts_mem_to_simt=1063145
icnt_total_pkts_simt_to_mem=812635
LD_mem_lat_dist  0 0 0 0 0 0 0 0 0 0 0 0 0 0 0 0 0 0 0 0 0 0 0 0 0 0 0
ST_mem_lat_dist  0 0 0 0 0 0 0 0 0 0 0 0 0 0 0 0 0 0 0 0 0 0 0 0 0 0 0
----------------------------Interconnect-DETAILS--------------------------------
Class 0:
Packet latency average = 12.8808
	minimum = 6
	maximum = 436
Network latency average = 11.855
	minimum = 6
	maximum = 400
Slowest packet = 4298
Flit latency average = 9.27563
	minimum = 6
	maximum = 399
Slowest flit = 12551
Fragmentation average = 0.00322741
	minimum = 0
	maximum = 359
Injected packet rate average = 0.0813374
	minimum = 0.0731569 (at node 2)
	maximum = 0.0916243 (at node 15)
Accepted packet rate average = 0.0813374
	minimum = 0.0731569 (at node 2)
	maximum = 0.0916243 (at node 15)
Injected flit rate average = 0.244008
	minimum = 0.190157 (at node 2)
	maximum = 0.311681 (at node 15)
Accepted flit rate average= 0.244008
	minimum = 0.237794 (at node 16)
	maximum = 0.249016 (at node 0)
Injected packet length average = 2.99995
Accepted packet length average = 2.99995
Total in-flight flits = 0 (0 measured)
====== Overall Traffic Statistics ======
====== Traffic class 0 ======
Packet latency average = 12.8808 (1 samples)
	minimum = 6 (1 samples)
	maximum = 436 (1 samples)
Network latency average = 11.855 (1 samples)
	minimum = 6 (1 samples)
	maximum = 400 (1 samples)
Flit latency average = 9.27563 (1 samples)
	minimum = 6 (1 samples)
	maximum = 399 (1 samples)
Fragmentation average = 0.00322741 (1 samples)
	minimum = 0 (1 samples)
	maximum = 359 (1 samples)
Injected packet rate average = 0.0813374 (1 samples)
	minimum = 0.0731569 (1 samples)
	maximum = 0.0916243 (1 samples)
Accepted packet rate average = 0.0813374 (1 samples)
	minimum = 0.0731569 (1 samples)
	maximum = 0.0916243 (1 samples)
Injected flit rate average = 0.244008 (1 samples)
	minimum = 0.190157 (1 samples)
	maximum = 0.311681 (1 samples)
Accepted flit rate average = 0.244008 (1 samples)
	minimum = 0.237794 (1 samples)
	maximum = 0.249016 (1 samples)
Injected packet size average = 2.99995 (1 samples)
Accepted packet size average = 2.99995 (1 samples)
Hops average = 1 (1 samples)
----------------------------END-of-Interconnect-DETAILS-------------------------


gpgpu_simulation_time = 0 days, 0 hrs, 6 min, 52 sec (412 sec)
gpgpu_simulation_rate = 475198 (inst/sec)
gpgpu_simulation_rate = 691 (cycle/sec)
GPGPU-Sim API: Stream Manager State
GPGPU-Sim: detected inactive GPU simulation thread
Options count             : 4000000     
BlackScholesGPU() time    : 410233.437500 msec
Effective memory bandwidth: 0.000098 GB/s
Gigaoptions per second    : 0.000010     
Reading back GPU results...
Checking the results...
...running CPU calculations.
Comparing the results...
L1 norm: 1.729535E-07
Max absolute error: 1.192093E-05
TEST PASSED
Shutting down...
...releasing GPU memory.
...releasing CPU memory.
Shutdown done.
GPGPU-Sim: exit_simulation called
GPGPU-Sim: simulation thread signaled exit

Press ENTER to exit...
