

        *** GPGPU-Sim Simulator Version 3.2.2  [build 0] ***


GPGPU-Sim PTX: simulation mode 0 (can change with PTX_SIM_MODE_FUNC environment variable:
               1=functional simulation only, 0=detailed performance simulator)
GPGPU-Sim: Configuration options:

-network_mode                           1 # Interconnection network mode
-inter_config_file   config_fermi_islip.icnt # Interconnection network config file
-gpgpu_ptx_use_cuobjdump                    1 # Use cuobjdump to extract ptx and sass from binaries
-gpgpu_experimental_lib_support                    0 # Try to extract code from cuda libraries [Broken because of unknown cudaGetExportTable]
-gpgpu_ptx_convert_to_ptxplus                    0 # Convert SASS (native ISA) to ptxplus and run ptxplus
-gpgpu_ptx_force_max_capability                   20 # Force maximum compute capability
-gpgpu_ptx_inst_debug_to_file                    0 # Dump executed instructions' debug information to file
-gpgpu_ptx_inst_debug_file       inst_debug.txt # Executed instructions' debug output file
-gpgpu_ptx_inst_debug_thread_uid                    1 # Thread UID for executed instructions' debug output
-gpgpu_simd_model                       1 # 1 = post-dominator
-gpgpu_shader_core_pipeline              1536:32 # shader core pipeline config, i.e., {<nthread>:<warpsize>}
-gpgpu_tex_cache:l1  4:128:24,L:R:m:N:L,F:128:4,128:2 # per-shader L1 texture cache  (READ-ONLY) config  {<nsets>:<bsize>:<assoc>,<rep>:<wr>:<alloc>:<wr_alloc>,<mshr>:<N>:<merge>,<mq>:<rf>}
-gpgpu_const_cache:l1 64:64:2,L:R:f:N:L,A:2:32,4 # per-shader L1 constant memory cache  (READ-ONLY) config  {<nsets>:<bsize>:<assoc>,<rep>:<wr>:<alloc>:<wr_alloc>,<mshr>:<N>:<merge>,<mq>} 
-gpgpu_cache:il1     4:128:4,L:R:f:N:L,A:2:32,4 # shader L1 instruction cache config  {<nsets>:<bsize>:<assoc>,<rep>:<wr>:<alloc>:<wr_alloc>,<mshr>:<N>:<merge>,<mq>} 
-gpgpu_cache:dl1     32:128:4,L:L:m:N:H,A:32:8,8 # per-shader L1 data cache config  {<nsets>:<bsize>:<assoc>,<rep>:<wr>:<alloc>:<wr_alloc>,<mshr>:<N>:<merge>,<mq> | none}
-gpgpu_cache:dl1PrefL1                 none # per-shader L1 data cache config  {<nsets>:<bsize>:<assoc>,<rep>:<wr>:<alloc>:<wr_alloc>,<mshr>:<N>:<merge>,<mq> | none}
-gpgpu_cache:dl1PreShared                 none # per-shader L1 data cache config  {<nsets>:<bsize>:<assoc>,<rep>:<wr>:<alloc>:<wr_alloc>,<mshr>:<N>:<merge>,<mq> | none}
-gmem_skip_L1D                          0 # global memory access skip L1D cache (implements -Xptxas -dlcm=cg, default=no skip)
-gpgpu_perfect_mem                      0 # enable perfect memory mode (no cache miss)
-n_regfile_gating_group                    4 # group of lanes that should be read/written together)
-gpgpu_clock_gated_reg_file                    0 # enable clock gated reg file for power calculations
-gpgpu_clock_gated_lanes                    0 # enable clock gated lanes for power calculations
-gpgpu_shader_registers                32768 # Number of registers per shader core. Limits number of concurrent CTAs. (default 8192)
-gpgpu_shader_cta                       8 # Maximum number of concurrent CTAs in shader (default 8)
-gpgpu_num_cta_barriers                   16 # Maximum number of named barriers per CTA (default 16)
-gpgpu_n_clusters                      15 # number of processing clusters
-gpgpu_n_cores_per_cluster                    1 # number of simd cores per cluster
-gpgpu_n_cluster_ejection_buffer_size                    8 # number of packets in ejection buffer
-gpgpu_n_ldst_response_buffer_size                    2 # number of response packets in ld/st unit ejection buffer
-gpgpu_shmem_size                   16384 # Size of shared memory per shader core (default 16kB)
-gpgpu_shmem_size                   49152 # Size of shared memory per shader core (default 16kB)
-gpgpu_shmem_size_PrefL1                16384 # Size of shared memory per shader core (default 16kB)
-gpgpu_shmem_size_PrefShared                16384 # Size of shared memory per shader core (default 16kB)
-gpgpu_shmem_num_banks                   32 # Number of banks in the shared memory in each shader core (default 16)
-gpgpu_shmem_limited_broadcast                    0 # Limit shared memory to do one broadcast per cycle (default on)
-gpgpu_shmem_warp_parts                    1 # Number of portions a warp is divided into for shared memory bank conflict check 
-gpgpu_warpdistro_shader                   -1 # Specify which shader core to collect the warp size distribution from
-gpgpu_warp_issue_shader                    0 # Specify which shader core to collect the warp issue distribution from
-gpgpu_local_mem_map                    1 # Mapping from local memory space address to simulated GPU physical address space (default = enabled)
-gpgpu_num_reg_banks                   16 # Number of register banks (default = 8)
-gpgpu_reg_bank_use_warp_id                    0 # Use warp ID in mapping registers to banks (default = off)
-gpgpu_operand_collector_num_units_sp                    6 # number of collector units (default = 4)
-gpgpu_operand_collector_num_units_sfu                    8 # number of collector units (default = 4)
-gpgpu_operand_collector_num_units_mem                    2 # number of collector units (default = 2)
-gpgpu_operand_collector_num_units_gen                    0 # number of collector units (default = 0)
-gpgpu_operand_collector_num_in_ports_sp                    2 # number of collector unit in ports (default = 1)
-gpgpu_operand_collector_num_in_ports_sfu                    1 # number of collector unit in ports (default = 1)
-gpgpu_operand_collector_num_in_ports_mem                    1 # number of collector unit in ports (default = 1)
-gpgpu_operand_collector_num_in_ports_gen                    0 # number of collector unit in ports (default = 0)
-gpgpu_operand_collector_num_out_ports_sp                    2 # number of collector unit in ports (default = 1)
-gpgpu_operand_collector_num_out_ports_sfu                    1 # number of collector unit in ports (default = 1)
-gpgpu_operand_collector_num_out_ports_mem                    1 # number of collector unit in ports (default = 1)
-gpgpu_operand_collector_num_out_ports_gen                    0 # number of collector unit in ports (default = 0)
-gpgpu_coalesce_arch                   13 # Coalescing arch (default = 13, anything else is off for now)
-gpgpu_num_sched_per_core                    2 # Number of warp schedulers per core
-gpgpu_max_insn_issue_per_warp                    1 # Max number of instructions that can be issued per warp in one cycle by scheduler
-gpgpu_simt_core_sim_order                    1 # Select the simulation order of cores in a cluster (0=Fix, 1=Round-Robin)
-gpgpu_pipeline_widths        2,1,1,2,1,1,2 # Pipeline widths ID_OC_SP,ID_OC_SFU,ID_OC_MEM,OC_EX_SP,OC_EX_SFU,OC_EX_MEM,EX_WB
-gpgpu_num_sp_units                     2 # Number of SP units (default=1)
-gpgpu_num_sfu_units                    1 # Number of SF units (default=1)
-gpgpu_num_mem_units                    1 # Number if ldst units (default=1) WARNING: not hooked up to anything
-gpgpu_scheduler                      gto # Scheduler configuration: < lrr | gto | two_level_active > If two_level_active:<num_active_warps>:<inner_prioritization>:<outer_prioritization>For complete list of prioritization values see shader.h enum scheduler_prioritization_typeDefault: gto
-gpgpu_dram_scheduler                    1 # 0 = fifo, 1 = FR-FCFS (defaul)
-gpgpu_dram_partition_queues              8:8:8:8 # i2$:$2d:d2$:$2i
-l2_ideal                               0 # Use a ideal L2 cache that always hit
-gpgpu_cache:dl2     64:128:8,L:B:m:W:L,A:32:4,4:0,32 # unified banked L2 data cache config  {<nsets>:<bsize>:<assoc>,<rep>:<wr>:<alloc>:<wr_alloc>,<mshr>:<N>:<merge>,<mq>}
-gpgpu_cache:dl2_texture_only                    0 # L2 cache used for texture only
-gpgpu_n_mem                            6 # number of memory modules (e.g. memory controllers) in gpu
-gpgpu_n_sub_partition_per_mchannel                    2 # number of memory subpartition in each memory module
-gpgpu_n_mem_per_ctrlr                    2 # number of memory chips per memory controller
-gpgpu_memlatency_stat                   14 # track and display latency statistics 0x2 enables MC, 0x4 enables queue logs
-gpgpu_frfcfs_dram_sched_queue_size                   16 # 0 = unlimited (default); # entries per chip
-gpgpu_dram_return_queue_size                  116 # 0 = unlimited (default); # entries per chip
-gpgpu_dram_buswidth                    4 # default = 4 bytes (8 bytes per cycle at DDR)
-gpgpu_dram_burst_length                    8 # Burst length of each DRAM request (default = 4 data bus cycle)
-dram_data_command_freq_ratio                    2 # Frequency ratio between DRAM data bus and command bus (default = 2 times, i.e. DDR)
-gpgpu_dram_timing_opt nbk=16:CCD=2:RRD=6:RCD=12:RAS=28:RP=12:RC=40: CL=12:WL=4:CDLR=5:WR=12:nbkgrp=4:CCDL=3:RTPL=2 # DRAM timing parameters = {nbk:tCCD:tRRD:tRCD:tRAS:tRP:tRC:CL:WL:tCDLR:tWR:nbkgrp:tCCDL:tRTPL}
-rop_latency                          120 # ROP queue latency (default 85)
-dram_latency                         100 # DRAM latency (default 30)
-gpgpu_mem_addr_mapping dramid@8;00000000.00000000.00000000.00000000.0000RRRR.RRRRRRRR.BBBCCCCB.CCSSSSSS # mapping memory address to dram model {dramid@<start bit>;<memory address map>}
-gpgpu_mem_addr_test                    0 # run sweep test to check address mapping for aliased address
-gpgpu_mem_address_mask                    1 # 0 = old addressing mask, 1 = new addressing mask, 2 = new add. mask + flipped bank sel and chip sel bits
-gpuwattch_xml_file  gpuwattch_gtx480.xml # GPUWattch XML file
-power_simulation_enabled                    0 # Turn on power simulator (1=On, 0=Off)
-power_per_cycle_dump                    0 # Dump detailed power output each cycle
-power_trace_enabled                    0 # produce a file for the power trace (1=On, 0=Off)
-power_trace_zlevel                     6 # Compression level of the power trace output log (0=no comp, 9=highest)
-steady_power_levels_enabled                    0 # produce a file for the steady power levels (1=On, 0=Off)
-steady_state_definition                  8:4 # allowed deviation:number of samples
-gpgpu_max_cycle                        0 # terminates gpu simulation early (0 = no limit)
-gpgpu_max_insn                         0 # terminates gpu simulation early (0 = no limit)
-gpgpu_max_cta                          0 # terminates gpu simulation early (0 = no limit)
-gpgpu_runtime_stat                   500 # display runtime statistics such as dram utilization {<freq>:<flag>}
-liveness_message_freq                    1 # Minimum number of seconds between simulation liveness messages (0 = always print)
-gpgpu_flush_l1_cache                    0 # Flush L1 cache at the end of each kernel call
-gpgpu_flush_l2_cache                    0 # Flush L2 cache at the end of each kernel call
-gpgpu_deadlock_detect                    1 # Stop the simulation at deadlock (1=on (default), 0=off)
-gpgpu_ptx_instruction_classification                    0 # if enabled will classify ptx instruction types per kernel (Max 255 kernels now)
-gpgpu_ptx_sim_mode                     0 # Select between Performance (default) or Functional simulation (1)
-gpgpu_clock_domains 700.0:700.0:700.0:924.0 # Clock Domain Frequencies in MhZ {<Core Clock>:<ICNT Clock>:<L2 Clock>:<DRAM Clock>}
-gpgpu_max_concurrent_kernel                    8 # maximum kernels that can run concurrently on GPU
-gpgpu_cflog_interval                    0 # Interval between each snapshot in control flow logger
-visualizer_enabled                     0 # Turn on visualizer output (1=On, 0=Off)
-visualizer_outputfile                 NULL # Specifies the output log file for visualizer
-visualizer_zlevel                      6 # Compression level of the visualizer output log (0=no comp, 9=highest)
-trace_enabled                          0 # Turn on traces
-trace_components                    none # comma seperated list of traces to enable. Complete list found in trace_streams.tup. Default none
-trace_sampling_core                    0 # The core which is printed using CORE_DPRINTF. Default 0
-trace_sampling_memory_partition                   -1 # The memory partition which is printed using MEMPART_DPRINTF. Default -1 (i.e. all)
-enable_ptx_file_line_stats                    1 # Turn on PTX source line statistic profiling. (1 = On)
-ptx_line_stats_filename gpgpu_inst_stats.txt # Output file for PTX source line statistics.
-save_embedded_ptx                      0 # saves ptx files embedded in binary as <n>.ptx
-keep                                   0 # keep intermediate files created by GPGPU-Sim when interfacing with external programs
-gpgpu_ptx_save_converted_ptxplus                    0 # Saved converted ptxplus to a file
-ptx_opcode_latency_int         4,13,4,5,145 # Opcode latencies for integers <ADD,MAX,MUL,MAD,DIV>Default 1,1,19,25,145
-ptx_opcode_latency_fp          4,13,4,5,39 # Opcode latencies for single precision floating points <ADD,MAX,MUL,MAD,DIV>Default 1,1,1,1,30
-ptx_opcode_latency_dp         8,19,8,8,330 # Opcode latencies for double precision floating points <ADD,MAX,MUL,MAD,DIV>Default 8,8,8,8,335
-ptx_opcode_initiation_int            1,2,2,1,8 # Opcode initiation intervals for integers <ADD,MAX,MUL,MAD,DIV>Default 1,1,4,4,32
-ptx_opcode_initiation_fp            1,2,1,1,4 # Opcode initiation intervals for single precision floating points <ADD,MAX,MUL,MAD,DIV>Default 1,1,1,1,5
-ptx_opcode_initiation_dp         8,16,8,8,130 # Opcode initiation intervals for double precision floating points <ADD,MAX,MUL,MAD,DIV>Default 8,8,8,8,130
DRAM Timing Options:
nbk                                    16 # number of banks
CCD                                     2 # column to column delay
RRD                                     6 # minimal delay between activation of rows in different banks
RCD                                    12 # row to column delay
RAS                                    28 # time needed to activate row
RP                                     12 # time needed to precharge (deactivate) row
RC                                     40 # row cycle time
CDLR                                    5 # switching from write to read (changes tWTR)
WR                                     12 # last data-in to row precharge
CL                                     12 # CAS latency
WL                                      4 # Write latency
nbkgrp                                  4 # number of bank groups
CCDL                                    3 # column to column delay between accesses to different bank groups
RTPL                                    2 # read to precharge delay between accesses to different bank groups
Total number of memory sub partition = 12
addr_dec_mask[CHIP]  = 0000000000000000 	high:64 low:0
addr_dec_mask[BK]    = 000000000000e100 	high:16 low:8
addr_dec_mask[ROW]   = 000000000fff0000 	high:28 low:16
addr_dec_mask[COL]   = 0000000000001eff 	high:13 low:0
addr_dec_mask[BURST] = 000000000000003f 	high:6 low:0
sub_partition_id_mask = 0000000000000100
GPGPU-Sim uArch: clock freqs: 700000000.000000:700000000.000000:700000000.000000:924000000.000000
GPGPU-Sim uArch: clock periods: 0.00000000142857142857:0.00000000142857142857:0.00000000142857142857:0.00000000108225108225
*** Initializing Memory Statistics ***
GPGPU-Sim uArch: interconnect node map (shaderID+MemID to icntID)
GPGPU-Sim uArch: Memory nodes ID start from index: 15
GPGPU-Sim uArch:    0   1   2   3   4
GPGPU-Sim uArch:    5   6   7   8   9
GPGPU-Sim uArch:   10  11  12  13  14
GPGPU-Sim uArch:   15  16  17  18  19
GPGPU-Sim uArch:   20  21  22  23  24
GPGPU-Sim uArch:   25  26
GPGPU-Sim uArch: interconnect node reverse map (icntID to shaderID+MemID)
GPGPU-Sim uArch: Memory nodes start from ID: 15
GPGPU-Sim uArch:    0   1   2   3   4
GPGPU-Sim uArch:    5   6   7   8   9
GPGPU-Sim uArch:   10  11  12  13  14
GPGPU-Sim uArch:   15  16  17  18  19
GPGPU-Sim uArch:   20  21  22  23  24
GPGPU-Sim uArch:   25  26
e389dacb331e7fcddf4abf4a164344f1  /sciclone/data20/adwait/applications/benchmarks/CUDA/BlackScholes/gpgpu_ptx_sim__BlackScholes
GPGPU-Sim uArch: performance model initialization complete.
GPGPU-Sim PTX: __cudaRegisterFatBinary, fat_cubin_handle = 1, filename=BlackScholes.cu
self exe links to: /sciclone/data20/adwait/applications/benchmarks/CUDA/BlackScholes/gpgpu_ptx_sim__BlackScholes
Running md5sum using "md5sum /sciclone/data20/adwait/applications/benchmarks/CUDA/BlackScholes/gpgpu_ptx_sim__BlackScholes "
Parsing file _cuobjdump_complete_output_jJZAKg
######### cuobjdump parser ########
## Adding new section ELF
Adding arch: sm_20
Adding identifier: BlackScholes.cu
## Adding new section PTX
Adding ptx filename: _cuobjdump_1.ptx
Adding arch: sm_20
Adding identifier: BlackScholes.cu
Done parsing!!!
GPGPU-Sim PTX: __cudaRegisterFunction _Z15BlackScholesGPUPfS_S_S_S_ffi : hostFun 0x0x405752, fat_cubin_handle = 1
GPGPU-Sim PTX: instruction assembly for function '_Z15BlackScholesGPUPfS_S_S_S_ffi'...   done.
GPGPU-Sim PTX: finding reconvergence points for '_Z15BlackScholesGPUPfS_S_S_S_ffi'...
GPGPU-Sim PTX: Finding dominators for '_Z15BlackScholesGPUPfS_S_S_S_ffi'...
GPGPU-Sim PTX: Finding immediate dominators for '_Z15BlackScholesGPUPfS_S_S_S_ffi'...
GPGPU-Sim PTX: Finding postdominators for '_Z15BlackScholesGPUPfS_S_S_S_ffi'...
GPGPU-Sim PTX: Finding immediate postdominators for '_Z15BlackScholesGPUPfS_S_S_S_ffi'...
GPGPU-Sim PTX: pre-decoding instructions for '_Z15BlackScholesGPUPfS_S_S_S_ffi'...
GPGPU-Sim PTX: reconvergence points for _Z15BlackScholesGPUPfS_S_S_S_ffi...
GPGPU-Sim PTX:  1 (potential) branch divergence @  PC=0x040 (_1.ptx:76) @%p1 bra $Lt_0_2818;
GPGPU-Sim PTX:    immediate post dominator      @  PC=0x3f8 (_1.ptx:200) exit;
GPGPU-Sim PTX:  2 (potential) branch divergence @  PC=0x3f0 (_1.ptx:197) @%p4 bra $Lt_0_3330;
GPGPU-Sim PTX:    immediate post dominator      @  PC=0x3f8 (_1.ptx:200) exit;
GPGPU-Sim PTX: ... end of reconvergence points for _Z15BlackScholesGPUPfS_S_S_S_ffi
GPGPU-Sim PTX: ... done pre-decoding instructions for '_Z15BlackScholesGPUPfS_S_S_S_ffi'.
GPGPU-Sim PTX: finished parsing EMBEDDED .ptx file _1.ptx
Adding _cuobjdump_1.ptx with cubin handle 1
GPGPU-Sim PTX: extracting embedded .ptx to temporary file "_ptx_XxVhWk"
Running: cat _ptx_XxVhWk | sed 's/.version 1.5/.version 1.4/' | sed 's/, texmode_independent//' | sed 's/\(\.extern \.const\[1\] .b8 \w\+\)\[\]/\1\[1\]/' | sed 's/const\[.\]/const\[0\]/g' > _ptx2_blL0wp
GPGPU-Sim PTX: generating ptxinfo using "$CUDA_INSTALL_PATH/bin/ptxas --gpu-name=sm_20 -v _ptx2_blL0wp --output-file  /dev/null 2> _ptx_XxVhWkinfo"
GPGPU-Sim PTX: Kernel '_Z15BlackScholesGPUPfS_S_S_S_ffi' : regs=31, lmem=0, smem=0, cmem=128
GPGPU-Sim PTX: removing ptxinfo using "rm -f _ptx_XxVhWk _ptx2_blL0wp _ptx_XxVhWkinfo"
GPGPU-Sim PTX: loading globals with explicit initializers... 
GPGPU-Sim PTX: finished loading globals (0 bytes total).
GPGPU-Sim PTX: loading constants with explicit initializers...  done.
Initializing data...
...allocating CPU memory for options.
...allocating GPU memory for options.
...generating input data in CPU mem.
...copying input data to GPU mem.
Data init done.
Executing Black-Scholes GPU kernel (1 iterations)...
GPGPU-Sim: synchronize waiting for inactive GPU simulation
GPGPU-Sim API: Stream Manager State
GPGPU-Sim: detected inactive GPU simulation thread

GPGPU-Sim PTX: cudaLaunch for 0x0x405752 (mode=performance simulation) on stream 0
GPGPU-Sim PTX: pushing kernel '_Z15BlackScholesGPUPfS_S_S_S_ffi' to stream 0, gridDim= (480,1,1) blockDim = (128,1,1) 
kernel '_Z15BlackScholesGPUPfS_S_S_S_ffi' transfer to GPU hardware scheduler
GPGPU-Sim uArch: Shader 1 bind to kernel 1 '_Z15BlackScholesGPUPfS_S_S_S_ffi'
GPGPU-Sim uArch: CTA/core = 8, limited by: regs cta_limit
GPGPU-Sim uArch: core:  1, cta: 0 initialized @(1,0)
GPGPU-Sim uArch: Shader 2 bind to kernel 1 '_Z15BlackScholesGPUPfS_S_S_S_ffi'
GPGPU-Sim uArch: core:  2, cta: 0 initialized @(1,0)
GPGPU-Sim uArch: Shader 3 bind to kernel 1 '_Z15BlackScholesGPUPfS_S_S_S_ffi'
GPGPU-Sim uArch: core:  3, cta: 0 initialized @(1,0)
GPGPU-Sim uArch: Shader 4 bind to kernel 1 '_Z15BlackScholesGPUPfS_S_S_S_ffi'
GPGPU-Sim uArch: core:  4, cta: 0 initialized @(1,0)
GPGPU-Sim uArch: Shader 5 bind to kernel 1 '_Z15BlackScholesGPUPfS_S_S_S_ffi'
GPGPU-Sim uArch: core:  5, cta: 0 initialized @(1,0)
GPGPU-Sim uArch: Shader 6 bind to kernel 1 '_Z15BlackScholesGPUPfS_S_S_S_ffi'
GPGPU-Sim uArch: core:  6, cta: 0 initialized @(1,0)
GPGPU-Sim uArch: Shader 7 bind to kernel 1 '_Z15BlackScholesGPUPfS_S_S_S_ffi'
GPGPU-Sim uArch: core:  7, cta: 0 initialized @(1,0)
GPGPU-Sim uArch: Shader 8 bind to kernel 1 '_Z15BlackScholesGPUPfS_S_S_S_ffi'
GPGPU-Sim uArch: core:  8, cta: 0 initialized @(1,0)
GPGPU-Sim uArch: Shader 9 bind to kernel 1 '_Z15BlackScholesGPUPfS_S_S_S_ffi'
GPGPU-Sim uArch: core:  9, cta: 0 initialized @(1,0)
GPGPU-Sim uArch: Shader 10 bind to kernel 1 '_Z15BlackScholesGPUPfS_S_S_S_ffi'
GPGPU-Sim uArch: core: 10, cta: 0 initialized @(1,0)
GPGPU-Sim uArch: Shader 11 bind to kernel 1 '_Z15BlackScholesGPUPfS_S_S_S_ffi'
GPGPU-Sim uArch: core: 11, cta: 0 initialized @(1,0)
GPGPU-Sim uArch: Shader 12 bind to kernel 1 '_Z15BlackScholesGPUPfS_S_S_S_ffi'
GPGPU-Sim uArch: core: 12, cta: 0 initialized @(1,0)
GPGPU-Sim uArch: Shader 13 bind to kernel 1 '_Z15BlackScholesGPUPfS_S_S_S_ffi'
GPGPU-Sim uArch: core: 13, cta: 0 initialized @(1,0)
GPGPU-Sim uArch: Shader 14 bind to kernel 1 '_Z15BlackScholesGPUPfS_S_S_S_ffi'
GPGPU-Sim uArch: core: 14, cta: 0 initialized @(1,0)
GPGPU-Sim uArch: Shader 0 bind to kernel 1 '_Z15BlackScholesGPUPfS_S_S_S_ffi'
GPGPU-Sim uArch: core:  0, cta: 0 initialized @(1,0)
GPGPU-Sim uArch: core:  1, cta: 1 initialized @(2,0)
GPGPU-Sim uArch: core:  2, cta: 1 initialized @(2,0)
GPGPU-Sim uArch: core:  3, cta: 1 initialized @(2,0)
GPGPU-Sim uArch: core:  4, cta: 1 initialized @(2,0)
GPGPU-Sim uArch: core:  5, cta: 1 initialized @(2,0)
GPGPU-Sim uArch: core:  6, cta: 1 initialized @(2,0)
GPGPU-Sim uArch: core:  7, cta: 1 initialized @(2,0)
GPGPU-Sim uArch: core:  8, cta: 1 initialized @(2,0)
GPGPU-Sim uArch: core:  9, cta: 1 initialized @(2,0)
GPGPU-Sim uArch: core: 10, cta: 1 initialized @(2,0)
GPGPU-Sim uArch: core: 11, cta: 1 initialized @(2,0)
GPGPU-Sim uArch: core: 12, cta: 1 initialized @(2,0)
GPGPU-Sim uArch: core: 13, cta: 1 initialized @(2,0)
GPGPU-Sim uArch: core: 14, cta: 1 initialized @(2,0)
GPGPU-Sim uArch: core:  0, cta: 1 initialized @(2,0)
GPGPU-Sim uArch: core:  1, cta: 2 initialized @(3,0)
GPGPU-Sim uArch: core:  2, cta: 2 initialized @(3,0)
GPGPU-Sim uArch: core:  3, cta: 2 initialized @(3,0)
GPGPU-Sim uArch: core:  4, cta: 2 initialized @(3,0)
GPGPU-Sim uArch: core:  5, cta: 2 initialized @(3,0)
GPGPU-Sim uArch: core:  6, cta: 2 initialized @(3,0)
GPGPU-Sim uArch: core:  7, cta: 2 initialized @(3,0)
GPGPU-Sim uArch: core:  8, cta: 2 initialized @(3,0)
GPGPU-Sim uArch: core:  9, cta: 2 initialized @(3,0)
GPGPU-Sim uArch: core: 10, cta: 2 initialized @(3,0)
GPGPU-Sim uArch: core: 11, cta: 2 initialized @(3,0)
GPGPU-Sim uArch: core: 12, cta: 2 initialized @(3,0)
GPGPU-Sim uArch: core: 13, cta: 2 initialized @(3,0)
GPGPU-Sim uArch: core: 14, cta: 2 initialized @(3,0)
GPGPU-Sim uArch: core:  0, cta: 2 initialized @(3,0)
GPGPU-Sim uArch: core:  1, cta: 3 initialized @(4,0)
GPGPU-Sim uArch: core:  2, cta: 3 initialized @(4,0)
GPGPU-Sim uArch: core:  3, cta: 3 initialized @(4,0)
GPGPU-Sim uArch: core:  4, cta: 3 initialized @(4,0)
GPGPU-Sim uArch: core:  5, cta: 3 initialized @(4,0)
GPGPU-Sim uArch: core:  6, cta: 3 initialized @(4,0)
GPGPU-Sim uArch: core:  7, cta: 3 initialized @(4,0)
GPGPU-Sim uArch: core:  8, cta: 3 initialized @(4,0)
GPGPU-Sim uArch: core:  9, cta: 3 initialized @(4,0)
GPGPU-Sim uArch: core: 10, cta: 3 initialized @(4,0)
GPGPU-Sim uArch: core: 11, cta: 3 initialized @(4,0)
GPGPU-Sim uArch: core: 12, cta: 3 initialized @(4,0)
GPGPU-Sim uArch: core: 13, cta: 3 initialized @(4,0)
GPGPU-Sim uArch: core: 14, cta: 3 initialized @(4,0)
GPGPU-Sim uArch: core:  0, cta: 3 initialized @(4,0)
GPGPU-Sim uArch: core:  1, cta: 4 initialized @(5,0)
GPGPU-Sim uArch: core:  2, cta: 4 initialized @(5,0)
GPGPU-Sim uArch: core:  3, cta: 4 initialized @(5,0)
GPGPU-Sim uArch: core:  4, cta: 4 initialized @(5,0)
GPGPU-Sim uArch: core:  5, cta: 4 initialized @(5,0)
GPGPU-Sim uArch: core:  6, cta: 4 initialized @(5,0)
GPGPU-Sim uArch: core:  7, cta: 4 initialized @(5,0)
GPGPU-Sim uArch: core:  8, cta: 4 initialized @(5,0)
GPGPU-Sim uArch: core:  9, cta: 4 initialized @(5,0)
GPGPU-Sim uArch: core: 10, cta: 4 initialized @(5,0)
GPGPU-Sim uArch: core: 11, cta: 4 initialized @(5,0)
GPGPU-Sim uArch: core: 12, cta: 4 initialized @(5,0)
GPGPU-Sim uArch: core: 13, cta: 4 initialized @(5,0)
GPGPU-Sim uArch: core: 14, cta: 4 initialized @(5,0)
GPGPU-Sim uArch: core:  0, cta: 4 initialized @(5,0)
GPGPU-Sim uArch: core:  1, cta: 5 initialized @(6,0)
GPGPU-Sim uArch: core:  2, cta: 5 initialized @(6,0)
GPGPU-Sim uArch: core:  3, cta: 5 initialized @(6,0)
GPGPU-Sim uArch: core:  4, cta: 5 initialized @(6,0)
GPGPU-Sim uArch: core:  5, cta: 5 initialized @(6,0)
GPGPU-Sim uArch: core:  6, cta: 5 initialized @(6,0)
GPGPU-Sim uArch: core:  7, cta: 5 initialized @(6,0)
GPGPU-Sim uArch: core:  8, cta: 5 initialized @(6,0)
GPGPU-Sim uArch: core:  9, cta: 5 initialized @(6,0)
GPGPU-Sim uArch: core: 10, cta: 5 initialized @(6,0)
GPGPU-Sim uArch: core: 11, cta: 5 initialized @(6,0)
GPGPU-Sim uArch: core: 12, cta: 5 initialized @(6,0)
GPGPU-Sim uArch: core: 13, cta: 5 initialized @(6,0)
GPGPU-Sim uArch: core: 14, cta: 5 initialized @(6,0)
GPGPU-Sim uArch: core:  0, cta: 5 initialized @(6,0)
GPGPU-Sim uArch: core:  1, cta: 6 initialized @(7,0)
GPGPU-Sim uArch: core:  2, cta: 6 initialized @(7,0)
GPGPU-Sim uArch: core:  3, cta: 6 initialized @(7,0)
GPGPU-Sim uArch: core:  4, cta: 6 initialized @(7,0)
GPGPU-Sim uArch: core:  5, cta: 6 initialized @(7,0)
GPGPU-Sim uArch: core:  6, cta: 6 initialized @(7,0)
GPGPU-Sim uArch: core:  7, cta: 6 initialized @(7,0)
GPGPU-Sim uArch: core:  8, cta: 6 initialized @(7,0)
GPGPU-Sim uArch: core:  9, cta: 6 initialized @(7,0)
GPGPU-Sim uArch: core: 10, cta: 6 initialized @(7,0)
GPGPU-Sim uArch: core: 11, cta: 6 initialized @(7,0)
GPGPU-Sim uArch: core: 12, cta: 6 initialized @(7,0)
GPGPU-Sim uArch: core: 13, cta: 6 initialized @(7,0)
GPGPU-Sim uArch: core: 14, cta: 6 initialized @(7,0)
GPGPU-Sim uArch: core:  0, cta: 6 initialized @(7,0)
GPGPU-Sim uArch: core:  1, cta: 7 initialized @(8,0)
GPGPU-Sim uArch: core:  2, cta: 7 initialized @(8,0)
GPGPU-Sim uArch: core:  3, cta: 7 initialized @(8,0)
GPGPU-Sim uArch: core:  4, cta: 7 initialized @(8,0)
GPGPU-Sim uArch: core:  5, cta: 7 initialized @(8,0)
GPGPU-Sim uArch: core:  6, cta: 7 initialized @(8,0)
GPGPU-Sim uArch: core:  7, cta: 7 initialized @(8,0)
GPGPU-Sim uArch: core:  8, cta: 7 initialized @(8,0)
GPGPU-Sim uArch: core:  9, cta: 7 initialized @(8,0)
GPGPU-Sim uArch: core: 10, cta: 7 initialized @(8,0)
GPGPU-Sim uArch: core: 11, cta: 7 initialized @(8,0)
GPGPU-Sim uArch: core: 12, cta: 7 initialized @(8,0)
GPGPU-Sim uArch: core: 13, cta: 7 initialized @(8,0)
GPGPU-Sim uArch: core: 14, cta: 7 initialized @(8,0)
GPGPU-Sim uArch: core:  0, cta: 7 initialized @(8,0)
GPGPU-Sim PTX: 100000 instructions simulated : ctaid=(27,0,0) tid=(95,0,0)
GPGPU-Sim uArch: cycles simulated: 500  inst.: 92160 (ipc=184.3) sim_rate=46080 (inst/sec) elapsed = 0:0:00:02 / Wed Mar  2 01:15:37 2016
GPGPU-Sim PTX: 200000 instructions simulated : ctaid=(94,0,0) tid=(95,0,0)
GPGPU-Sim uArch: cycles simulated: 1000  inst.: 238272 (ipc=238.3) sim_rate=79424 (inst/sec) elapsed = 0:0:00:03 / Wed Mar  2 01:15:38 2016
GPGPU-Sim PTX: 300000 instructions simulated : ctaid=(53,0,0) tid=(127,0,0)
GPGPU-Sim PTX: 400000 instructions simulated : ctaid=(70,0,0) tid=(127,0,0)
GPGPU-Sim PTX: 500000 instructions simulated : ctaid=(33,0,0) tid=(31,0,0)
GPGPU-Sim PTX: 600000 instructions simulated : ctaid=(63,0,0) tid=(95,0,0)
GPGPU-Sim uArch: cycles simulated: 2500  inst.: 605152 (ipc=242.1) sim_rate=151288 (inst/sec) elapsed = 0:0:00:04 / Wed Mar  2 01:15:39 2016
GPGPU-Sim PTX: 700000 instructions simulated : ctaid=(34,0,0) tid=(95,0,0)
GPGPU-Sim PTX: 800000 instructions simulated : ctaid=(93,0,0) tid=(31,0,0)
GPGPU-Sim PTX: 900000 instructions simulated : ctaid=(11,0,0) tid=(127,0,0)
GPGPU-Sim PTX: 1000000 instructions simulated : ctaid=(16,0,0) tid=(63,0,0)
GPGPU-Sim PTX: 1100000 instructions simulated : ctaid=(70,0,0) tid=(127,0,0)
GPGPU-Sim uArch: cycles simulated: 3500  inst.: 1153248 (ipc=329.5) sim_rate=230649 (inst/sec) elapsed = 0:0:00:05 / Wed Mar  2 01:15:40 2016
GPGPU-Sim PTX: 1200000 instructions simulated : ctaid=(38,0,0) tid=(31,0,0)
GPGPU-Sim PTX: 1300000 instructions simulated : ctaid=(37,0,0) tid=(31,0,0)
GPGPU-Sim PTX: 1400000 instructions simulated : ctaid=(57,0,0) tid=(127,0,0)
GPGPU-Sim PTX: 1500000 instructions simulated : ctaid=(59,0,0) tid=(31,0,0)
GPGPU-Sim PTX: 1600000 instructions simulated : ctaid=(52,0,0) tid=(95,0,0)
GPGPU-Sim PTX: 1700000 instructions simulated : ctaid=(105,0,0) tid=(127,0,0)
GPGPU-Sim PTX: 1800000 instructions simulated : ctaid=(108,0,0) tid=(63,0,0)
GPGPU-Sim uArch: cycles simulated: 4500  inst.: 1809152 (ipc=402.0) sim_rate=301525 (inst/sec) elapsed = 0:0:00:06 / Wed Mar  2 01:15:41 2016
GPGPU-Sim PTX: 1900000 instructions simulated : ctaid=(16,0,0) tid=(31,0,0)
GPGPU-Sim PTX: 2000000 instructions simulated : ctaid=(41,0,0) tid=(31,0,0)
GPGPU-Sim uArch: cycles simulated: 5500  inst.: 1993216 (ipc=362.4) sim_rate=284745 (inst/sec) elapsed = 0:0:00:07 / Wed Mar  2 01:15:42 2016
GPGPU-Sim PTX: 2100000 instructions simulated : ctaid=(76,0,0) tid=(63,0,0)
GPGPU-Sim PTX: 2200000 instructions simulated : ctaid=(8,0,0) tid=(31,0,0)
GPGPU-Sim PTX: 2300000 instructions simulated : ctaid=(43,0,0) tid=(95,0,0)
GPGPU-Sim PTX: 2400000 instructions simulated : ctaid=(69,0,0) tid=(95,0,0)
GPGPU-Sim PTX: 2500000 instructions simulated : ctaid=(64,0,0) tid=(95,0,0)
GPGPU-Sim PTX: 2600000 instructions simulated : ctaid=(77,0,0) tid=(31,0,0)
GPGPU-Sim PTX: 2700000 instructions simulated : ctaid=(100,0,0) tid=(31,0,0)
GPGPU-Sim uArch: cycles simulated: 6500  inst.: 2673664 (ipc=411.3) sim_rate=334208 (inst/sec) elapsed = 0:0:00:08 / Wed Mar  2 01:15:43 2016
GPGPU-Sim PTX: 2800000 instructions simulated : ctaid=(33,0,0) tid=(63,0,0)
GPGPU-Sim PTX: 2900000 instructions simulated : ctaid=(117,0,0) tid=(31,0,0)
GPGPU-Sim PTX: 3000000 instructions simulated : ctaid=(46,0,0) tid=(127,0,0)
GPGPU-Sim PTX: 3100000 instructions simulated : ctaid=(88,0,0) tid=(63,0,0)
GPGPU-Sim PTX: 3200000 instructions simulated : ctaid=(85,0,0) tid=(127,0,0)
GPGPU-Sim PTX: 3300000 instructions simulated : ctaid=(34,0,0) tid=(95,0,0)
GPGPU-Sim uArch: cycles simulated: 7500  inst.: 3293280 (ipc=439.1) sim_rate=365920 (inst/sec) elapsed = 0:0:00:09 / Wed Mar  2 01:15:44 2016
GPGPU-Sim PTX: 3400000 instructions simulated : ctaid=(41,0,0) tid=(63,0,0)
GPGPU-Sim PTX: 3500000 instructions simulated : ctaid=(45,0,0) tid=(31,0,0)
GPGPU-Sim PTX: 3600000 instructions simulated : ctaid=(72,0,0) tid=(63,0,0)
GPGPU-Sim PTX: 3700000 instructions simulated : ctaid=(19,0,0) tid=(127,0,0)
GPGPU-Sim PTX: 3800000 instructions simulated : ctaid=(80,0,0) tid=(127,0,0)
GPGPU-Sim uArch: cycles simulated: 8500  inst.: 3815936 (ipc=448.9) sim_rate=381593 (inst/sec) elapsed = 0:0:00:10 / Wed Mar  2 01:15:45 2016
GPGPU-Sim PTX: 3900000 instructions simulated : ctaid=(79,0,0) tid=(95,0,0)
GPGPU-Sim PTX: 4000000 instructions simulated : ctaid=(65,0,0) tid=(95,0,0)
GPGPU-Sim PTX: 4100000 instructions simulated : ctaid=(23,0,0) tid=(127,0,0)
GPGPU-Sim PTX: 4200000 instructions simulated : ctaid=(88,0,0) tid=(31,0,0)
GPGPU-Sim PTX: 4300000 instructions simulated : ctaid=(11,0,0) tid=(95,0,0)
GPGPU-Sim uArch: cycles simulated: 9500  inst.: 4339296 (ipc=456.8) sim_rate=394481 (inst/sec) elapsed = 0:0:00:11 / Wed Mar  2 01:15:46 2016
GPGPU-Sim PTX: 4400000 instructions simulated : ctaid=(87,0,0) tid=(95,0,0)
GPGPU-Sim PTX: 4500000 instructions simulated : ctaid=(53,0,0) tid=(95,0,0)
GPGPU-Sim PTX: 4600000 instructions simulated : ctaid=(75,0,0) tid=(31,0,0)
GPGPU-Sim PTX: 4700000 instructions simulated : ctaid=(21,0,0) tid=(63,0,0)
GPGPU-Sim PTX: 4800000 instructions simulated : ctaid=(36,0,0) tid=(31,0,0)
GPGPU-Sim PTX: 4900000 instructions simulated : ctaid=(71,0,0) tid=(31,0,0)
GPGPU-Sim uArch: cycles simulated: 10500  inst.: 4892864 (ipc=466.0) sim_rate=407738 (inst/sec) elapsed = 0:0:00:12 / Wed Mar  2 01:15:47 2016
GPGPU-Sim PTX: 5000000 instructions simulated : ctaid=(96,0,0) tid=(95,0,0)
GPGPU-Sim PTX: 5100000 instructions simulated : ctaid=(69,0,0) tid=(127,0,0)
GPGPU-Sim PTX: 5200000 instructions simulated : ctaid=(30,0,0) tid=(95,0,0)
GPGPU-Sim PTX: 5300000 instructions simulated : ctaid=(98,0,0) tid=(127,0,0)
GPGPU-Sim PTX: 5400000 instructions simulated : ctaid=(59,0,0) tid=(63,0,0)
GPGPU-Sim PTX: 5500000 instructions simulated : ctaid=(71,0,0) tid=(63,0,0)
GPGPU-Sim uArch: cycles simulated: 11500  inst.: 5464928 (ipc=475.2) sim_rate=420379 (inst/sec) elapsed = 0:0:00:13 / Wed Mar  2 01:15:48 2016
GPGPU-Sim PTX: 5600000 instructions simulated : ctaid=(82,0,0) tid=(31,0,0)
GPGPU-Sim PTX: 5700000 instructions simulated : ctaid=(17,0,0) tid=(127,0,0)
GPGPU-Sim uArch: cycles simulated: 12000  inst.: 5736096 (ipc=478.0) sim_rate=409721 (inst/sec) elapsed = 0:0:00:14 / Wed Mar  2 01:15:49 2016
GPGPU-Sim PTX: 5800000 instructions simulated : ctaid=(104,0,0) tid=(127,0,0)
GPGPU-Sim PTX: 5900000 instructions simulated : ctaid=(109,0,0) tid=(127,0,0)
GPGPU-Sim PTX: 6000000 instructions simulated : ctaid=(74,0,0) tid=(63,0,0)
GPGPU-Sim PTX: 6100000 instructions simulated : ctaid=(6,0,0) tid=(31,0,0)
GPGPU-Sim PTX: 6200000 instructions simulated : ctaid=(107,0,0) tid=(31,0,0)
GPGPU-Sim PTX: 6300000 instructions simulated : ctaid=(81,0,0) tid=(63,0,0)
GPGPU-Sim uArch: cycles simulated: 13000  inst.: 6316896 (ipc=485.9) sim_rate=421126 (inst/sec) elapsed = 0:0:00:15 / Wed Mar  2 01:15:50 2016
GPGPU-Sim PTX: 6400000 instructions simulated : ctaid=(9,0,0) tid=(95,0,0)
GPGPU-Sim PTX: 6500000 instructions simulated : ctaid=(15,0,0) tid=(127,0,0)
GPGPU-Sim PTX: 6600000 instructions simulated : ctaid=(85,0,0) tid=(31,0,0)
GPGPU-Sim PTX: 6700000 instructions simulated : ctaid=(79,0,0) tid=(31,0,0)
GPGPU-Sim PTX: 6800000 instructions simulated : ctaid=(58,0,0) tid=(95,0,0)
GPGPU-Sim PTX: 6900000 instructions simulated : ctaid=(98,0,0) tid=(95,0,0)
GPGPU-Sim uArch: cycles simulated: 14000  inst.: 6916192 (ipc=494.0) sim_rate=432262 (inst/sec) elapsed = 0:0:00:16 / Wed Mar  2 01:15:51 2016
GPGPU-Sim PTX: 7000000 instructions simulated : ctaid=(78,0,0) tid=(31,0,0)
GPGPU-Sim PTX: 7100000 instructions simulated : ctaid=(89,0,0) tid=(63,0,0)
GPGPU-Sim PTX: 7200000 instructions simulated : ctaid=(55,0,0) tid=(95,0,0)
GPGPU-Sim PTX: 7300000 instructions simulated : ctaid=(0,0,0) tid=(127,0,0)
GPGPU-Sim PTX: 7400000 instructions simulated : ctaid=(108,0,0) tid=(63,0,0)
GPGPU-Sim PTX: 7500000 instructions simulated : ctaid=(94,0,0) tid=(95,0,0)
GPGPU-Sim uArch: cycles simulated: 15000  inst.: 7475392 (ipc=498.4) sim_rate=439728 (inst/sec) elapsed = 0:0:00:17 / Wed Mar  2 01:15:52 2016
GPGPU-Sim PTX: 7600000 instructions simulated : ctaid=(74,0,0) tid=(31,0,0)
GPGPU-Sim PTX: 7700000 instructions simulated : ctaid=(98,0,0) tid=(31,0,0)
GPGPU-Sim PTX: 7800000 instructions simulated : ctaid=(81,0,0) tid=(95,0,0)
GPGPU-Sim PTX: 7900000 instructions simulated : ctaid=(17,0,0) tid=(95,0,0)
GPGPU-Sim PTX: 8000000 instructions simulated : ctaid=(8,0,0) tid=(127,0,0)
GPGPU-Sim uArch: cycles simulated: 16000  inst.: 8056064 (ipc=503.5) sim_rate=447559 (inst/sec) elapsed = 0:0:00:18 / Wed Mar  2 01:15:53 2016
GPGPU-Sim PTX: 8100000 instructions simulated : ctaid=(89,0,0) tid=(95,0,0)
GPGPU-Sim PTX: 8200000 instructions simulated : ctaid=(51,0,0) tid=(31,0,0)
GPGPU-Sim PTX: 8300000 instructions simulated : ctaid=(97,0,0) tid=(95,0,0)
GPGPU-Sim PTX: 8400000 instructions simulated : ctaid=(50,0,0) tid=(127,0,0)
GPGPU-Sim PTX: 8500000 instructions simulated : ctaid=(72,0,0) tid=(31,0,0)
GPGPU-Sim PTX: 8600000 instructions simulated : ctaid=(70,0,0) tid=(127,0,0)
GPGPU-Sim uArch: cycles simulated: 17000  inst.: 8605568 (ipc=506.2) sim_rate=452924 (inst/sec) elapsed = 0:0:00:19 / Wed Mar  2 01:15:54 2016
GPGPU-Sim PTX: 8700000 instructions simulated : ctaid=(0,0,0) tid=(95,0,0)
GPGPU-Sim PTX: 8800000 instructions simulated : ctaid=(24,0,0) tid=(95,0,0)
GPGPU-Sim PTX: 8900000 instructions simulated : ctaid=(74,0,0) tid=(95,0,0)
GPGPU-Sim PTX: 9000000 instructions simulated : ctaid=(95,0,0) tid=(31,0,0)
GPGPU-Sim PTX: 9100000 instructions simulated : ctaid=(50,0,0) tid=(31,0,0)
GPGPU-Sim PTX: 9200000 instructions simulated : ctaid=(14,0,0) tid=(31,0,0)
GPGPU-Sim uArch: cycles simulated: 18000  inst.: 9166368 (ipc=509.2) sim_rate=458318 (inst/sec) elapsed = 0:0:00:20 / Wed Mar  2 01:15:55 2016
GPGPU-Sim PTX: 9300000 instructions simulated : ctaid=(85,0,0) tid=(95,0,0)
GPGPU-Sim PTX: 9400000 instructions simulated : ctaid=(16,0,0) tid=(127,0,0)
GPGPU-Sim PTX: 9500000 instructions simulated : ctaid=(9,0,0) tid=(63,0,0)
GPGPU-Sim PTX: 9600000 instructions simulated : ctaid=(10,0,0) tid=(95,0,0)
GPGPU-Sim PTX: 9700000 instructions simulated : ctaid=(11,0,0) tid=(127,0,0)
GPGPU-Sim uArch: cycles simulated: 19000  inst.: 9725088 (ipc=511.8) sim_rate=463099 (inst/sec) elapsed = 0:0:00:21 / Wed Mar  2 01:15:56 2016
GPGPU-Sim PTX: 9800000 instructions simulated : ctaid=(31,0,0) tid=(63,0,0)
GPGPU-Sim PTX: 9900000 instructions simulated : ctaid=(43,0,0) tid=(127,0,0)
GPGPU-Sim PTX: 10000000 instructions simulated : ctaid=(109,0,0) tid=(63,0,0)
GPGPU-Sim PTX: 10100000 instructions simulated : ctaid=(67,0,0) tid=(31,0,0)
GPGPU-Sim PTX: 10200000 instructions simulated : ctaid=(91,0,0) tid=(31,0,0)
GPGPU-Sim PTX: 10300000 instructions simulated : ctaid=(47,0,0) tid=(31,0,0)
GPGPU-Sim uArch: cycles simulated: 20000  inst.: 10278560 (ipc=513.9) sim_rate=467207 (inst/sec) elapsed = 0:0:00:22 / Wed Mar  2 01:15:57 2016
GPGPU-Sim PTX: 10400000 instructions simulated : ctaid=(43,0,0) tid=(31,0,0)
GPGPU-Sim PTX: 10500000 instructions simulated : ctaid=(14,0,0) tid=(127,0,0)
GPGPU-Sim PTX: 10600000 instructions simulated : ctaid=(32,0,0) tid=(127,0,0)
GPGPU-Sim PTX: 10700000 instructions simulated : ctaid=(23,0,0) tid=(95,0,0)
GPGPU-Sim PTX: 10800000 instructions simulated : ctaid=(15,0,0) tid=(95,0,0)
GPGPU-Sim uArch: cycles simulated: 21000  inst.: 10846528 (ipc=516.5) sim_rate=471588 (inst/sec) elapsed = 0:0:00:23 / Wed Mar  2 01:15:58 2016
GPGPU-Sim PTX: 10900000 instructions simulated : ctaid=(1,0,0) tid=(63,0,0)
GPGPU-Sim PTX: 11000000 instructions simulated : ctaid=(40,0,0) tid=(31,0,0)
GPGPU-Sim PTX: 11100000 instructions simulated : ctaid=(25,0,0) tid=(31,0,0)
GPGPU-Sim PTX: 11200000 instructions simulated : ctaid=(13,0,0) tid=(95,0,0)
GPGPU-Sim PTX: 11300000 instructions simulated : ctaid=(0,0,0) tid=(95,0,0)
GPGPU-Sim PTX: 11400000 instructions simulated : ctaid=(2,0,0) tid=(31,0,0)
GPGPU-Sim uArch: cycles simulated: 22000  inst.: 11400000 (ipc=518.2) sim_rate=475000 (inst/sec) elapsed = 0:0:00:24 / Wed Mar  2 01:15:59 2016
GPGPU-Sim PTX: 11500000 instructions simulated : ctaid=(27,0,0) tid=(127,0,0)
GPGPU-Sim PTX: 11600000 instructions simulated : ctaid=(11,0,0) tid=(127,0,0)
GPGPU-Sim PTX: 11700000 instructions simulated : ctaid=(23,0,0) tid=(95,0,0)
GPGPU-Sim uArch: cycles simulated: 22500  inst.: 11680768 (ipc=519.1) sim_rate=467230 (inst/sec) elapsed = 0:0:00:25 / Wed Mar  2 01:16:00 2016
GPGPU-Sim PTX: 11800000 instructions simulated : ctaid=(102,0,0) tid=(95,0,0)
GPGPU-Sim PTX: 11900000 instructions simulated : ctaid=(88,0,0) tid=(95,0,0)
GPGPU-Sim PTX: 12000000 instructions simulated : ctaid=(0,0,0) tid=(95,0,0)
GPGPU-Sim PTX: 12100000 instructions simulated : ctaid=(31,0,0) tid=(95,0,0)
GPGPU-Sim PTX: 12200000 instructions simulated : ctaid=(91,0,0) tid=(31,0,0)
GPGPU-Sim uArch: cycles simulated: 23500  inst.: 12244928 (ipc=521.1) sim_rate=470958 (inst/sec) elapsed = 0:0:00:26 / Wed Mar  2 01:16:01 2016
GPGPU-Sim PTX: 12300000 instructions simulated : ctaid=(27,0,0) tid=(95,0,0)
GPGPU-Sim PTX: 12400000 instructions simulated : ctaid=(50,0,0) tid=(95,0,0)
GPGPU-Sim PTX: 12500000 instructions simulated : ctaid=(55,0,0) tid=(63,0,0)
GPGPU-Sim PTX: 12600000 instructions simulated : ctaid=(3,0,0) tid=(63,0,0)
GPGPU-Sim PTX: 12700000 instructions simulated : ctaid=(7,0,0) tid=(63,0,0)
GPGPU-Sim PTX: 12800000 instructions simulated : ctaid=(72,0,0) tid=(95,0,0)
GPGPU-Sim uArch: cycles simulated: 24500  inst.: 12811616 (ipc=522.9) sim_rate=474504 (inst/sec) elapsed = 0:0:00:27 / Wed Mar  2 01:16:02 2016
GPGPU-Sim PTX: 12900000 instructions simulated : ctaid=(6,0,0) tid=(95,0,0)
GPGPU-Sim PTX: 13000000 instructions simulated : ctaid=(25,0,0) tid=(63,0,0)
GPGPU-Sim PTX: 13100000 instructions simulated : ctaid=(56,0,0) tid=(31,0,0)
GPGPU-Sim PTX: 13200000 instructions simulated : ctaid=(75,0,0) tid=(95,0,0)
GPGPU-Sim PTX: 13300000 instructions simulated : ctaid=(3,0,0) tid=(95,0,0)
GPGPU-Sim PTX: 13400000 instructions simulated : ctaid=(82,0,0) tid=(63,0,0)
GPGPU-Sim uArch: cycles simulated: 25500  inst.: 13372864 (ipc=524.4) sim_rate=477602 (inst/sec) elapsed = 0:0:00:28 / Wed Mar  2 01:16:03 2016
GPGPU-Sim PTX: 13500000 instructions simulated : ctaid=(81,0,0) tid=(63,0,0)
GPGPU-Sim PTX: 13600000 instructions simulated : ctaid=(57,0,0) tid=(95,0,0)
GPGPU-Sim PTX: 13700000 instructions simulated : ctaid=(0,0,0) tid=(31,0,0)
GPGPU-Sim PTX: 13800000 instructions simulated : ctaid=(34,0,0) tid=(31,0,0)
GPGPU-Sim PTX: 13900000 instructions simulated : ctaid=(26,0,0) tid=(127,0,0)
GPGPU-Sim uArch: cycles simulated: 26500  inst.: 13882816 (ipc=523.9) sim_rate=478717 (inst/sec) elapsed = 0:0:00:29 / Wed Mar  2 01:16:04 2016
GPGPU-Sim PTX: 14000000 instructions simulated : ctaid=(72,0,0) tid=(95,0,0)
GPGPU-Sim PTX: 14100000 instructions simulated : ctaid=(68,0,0) tid=(31,0,0)
GPGPU-Sim PTX: 14200000 instructions simulated : ctaid=(0,0,0) tid=(127,0,0)
GPGPU-Sim PTX: 14300000 instructions simulated : ctaid=(14,0,0) tid=(63,0,0)
GPGPU-Sim PTX: 14400000 instructions simulated : ctaid=(84,0,0) tid=(31,0,0)
GPGPU-Sim uArch: cycles simulated: 27500  inst.: 14448640 (ipc=525.4) sim_rate=481621 (inst/sec) elapsed = 0:0:00:30 / Wed Mar  2 01:16:05 2016
GPGPU-Sim PTX: 14500000 instructions simulated : ctaid=(48,0,0) tid=(127,0,0)
GPGPU-Sim PTX: 14600000 instructions simulated : ctaid=(24,0,0) tid=(95,0,0)
GPGPU-Sim PTX: 14700000 instructions simulated : ctaid=(82,0,0) tid=(127,0,0)
GPGPU-Sim uArch: cycles simulated: 28000  inst.: 14756480 (ipc=527.0) sim_rate=476015 (inst/sec) elapsed = 0:0:00:31 / Wed Mar  2 01:16:06 2016
GPGPU-Sim PTX: 14800000 instructions simulated : ctaid=(90,0,0) tid=(31,0,0)
GPGPU-Sim PTX: 14900000 instructions simulated : ctaid=(22,0,0) tid=(127,0,0)
GPGPU-Sim PTX: 15000000 instructions simulated : ctaid=(18,0,0) tid=(127,0,0)
GPGPU-Sim PTX: 15100000 instructions simulated : ctaid=(42,0,0) tid=(95,0,0)
GPGPU-Sim PTX: 15200000 instructions simulated : ctaid=(100,0,0) tid=(31,0,0)
GPGPU-Sim PTX: 15300000 instructions simulated : ctaid=(56,0,0) tid=(63,0,0)
GPGPU-Sim uArch: cycles simulated: 29000  inst.: 15324800 (ipc=528.4) sim_rate=478900 (inst/sec) elapsed = 0:0:00:32 / Wed Mar  2 01:16:07 2016
GPGPU-Sim PTX: 15400000 instructions simulated : ctaid=(63,0,0) tid=(127,0,0)
GPGPU-Sim PTX: 15500000 instructions simulated : ctaid=(41,0,0) tid=(95,0,0)
GPGPU-Sim PTX: 15600000 instructions simulated : ctaid=(34,0,0) tid=(63,0,0)
GPGPU-Sim PTX: 15700000 instructions simulated : ctaid=(80,0,0) tid=(31,0,0)
GPGPU-Sim PTX: 15800000 instructions simulated : ctaid=(74,0,0) tid=(31,0,0)
GPGPU-Sim PTX: 15900000 instructions simulated : ctaid=(46,0,0) tid=(127,0,0)
GPGPU-Sim uArch: cycles simulated: 30000  inst.: 15909216 (ipc=530.3) sim_rate=482097 (inst/sec) elapsed = 0:0:00:33 / Wed Mar  2 01:16:08 2016
GPGPU-Sim PTX: 16000000 instructions simulated : ctaid=(34,0,0) tid=(95,0,0)
GPGPU-Sim PTX: 16100000 instructions simulated : ctaid=(81,0,0) tid=(63,0,0)
GPGPU-Sim PTX: 16200000 instructions simulated : ctaid=(12,0,0) tid=(63,0,0)
GPGPU-Sim PTX: 16300000 instructions simulated : ctaid=(66,0,0) tid=(127,0,0)
GPGPU-Sim PTX: 16400000 instructions simulated : ctaid=(11,0,0) tid=(31,0,0)
GPGPU-Sim PTX: 16500000 instructions simulated : ctaid=(28,0,0) tid=(95,0,0)
GPGPU-Sim uArch: cycles simulated: 31000  inst.: 16474304 (ipc=531.4) sim_rate=484538 (inst/sec) elapsed = 0:0:00:34 / Wed Mar  2 01:16:09 2016
GPGPU-Sim PTX: 16600000 instructions simulated : ctaid=(30,0,0) tid=(63,0,0)
GPGPU-Sim PTX: 16700000 instructions simulated : ctaid=(106,0,0) tid=(63,0,0)
GPGPU-Sim PTX: 16800000 instructions simulated : ctaid=(2,0,0) tid=(31,0,0)
GPGPU-Sim PTX: 16900000 instructions simulated : ctaid=(12,0,0) tid=(31,0,0)
GPGPU-Sim PTX: 17000000 instructions simulated : ctaid=(50,0,0) tid=(31,0,0)
GPGPU-Sim uArch: cycles simulated: 32000  inst.: 16982528 (ipc=530.7) sim_rate=485215 (inst/sec) elapsed = 0:0:00:35 / Wed Mar  2 01:16:10 2016
GPGPU-Sim PTX: 17100000 instructions simulated : ctaid=(25,0,0) tid=(95,0,0)
GPGPU-Sim PTX: 17200000 instructions simulated : ctaid=(62,0,0) tid=(31,0,0)
GPGPU-Sim PTX: 17300000 instructions simulated : ctaid=(70,0,0) tid=(31,0,0)
GPGPU-Sim PTX: 17400000 instructions simulated : ctaid=(36,0,0) tid=(31,0,0)
GPGPU-Sim PTX: 17500000 instructions simulated : ctaid=(36,0,0) tid=(95,0,0)
GPGPU-Sim uArch: cycles simulated: 33000  inst.: 17523616 (ipc=531.0) sim_rate=486767 (inst/sec) elapsed = 0:0:00:36 / Wed Mar  2 01:16:11 2016
GPGPU-Sim PTX: 17600000 instructions simulated : ctaid=(93,0,0) tid=(31,0,0)
GPGPU-Sim PTX: 17700000 instructions simulated : ctaid=(92,0,0) tid=(127,0,0)
GPGPU-Sim PTX: 17800000 instructions simulated : ctaid=(45,0,0) tid=(31,0,0)
GPGPU-Sim PTX: 17900000 instructions simulated : ctaid=(55,0,0) tid=(31,0,0)
GPGPU-Sim PTX: 18000000 instructions simulated : ctaid=(21,0,0) tid=(31,0,0)
GPGPU-Sim PTX: 18100000 instructions simulated : ctaid=(29,0,0) tid=(127,0,0)
GPGPU-Sim uArch: cycles simulated: 34000  inst.: 18090912 (ipc=532.1) sim_rate=488943 (inst/sec) elapsed = 0:0:00:37 / Wed Mar  2 01:16:12 2016
GPGPU-Sim PTX: 18200000 instructions simulated : ctaid=(56,0,0) tid=(63,0,0)
GPGPU-Sim PTX: 18300000 instructions simulated : ctaid=(33,0,0) tid=(95,0,0)
GPGPU-Sim PTX: 18400000 instructions simulated : ctaid=(88,0,0) tid=(31,0,0)
GPGPU-Sim uArch: cycles simulated: 34500  inst.: 18375072 (ipc=532.6) sim_rate=483554 (inst/sec) elapsed = 0:0:00:38 / Wed Mar  2 01:16:13 2016
GPGPU-Sim PTX: 18500000 instructions simulated : ctaid=(76,0,0) tid=(31,0,0)
GPGPU-Sim PTX: 18600000 instructions simulated : ctaid=(94,0,0) tid=(95,0,0)
GPGPU-Sim PTX: 18700000 instructions simulated : ctaid=(17,0,0) tid=(95,0,0)
GPGPU-Sim PTX: 18800000 instructions simulated : ctaid=(19,0,0) tid=(95,0,0)
GPGPU-Sim PTX: 18900000 instructions simulated : ctaid=(75,0,0) tid=(95,0,0)
GPGPU-Sim uArch: cycles simulated: 35500  inst.: 18925152 (ipc=533.1) sim_rate=485260 (inst/sec) elapsed = 0:0:00:39 / Wed Mar  2 01:16:14 2016
GPGPU-Sim PTX: 19000000 instructions simulated : ctaid=(5,0,0) tid=(63,0,0)
GPGPU-Sim PTX: 19100000 instructions simulated : ctaid=(76,0,0) tid=(63,0,0)
GPGPU-Sim PTX: 19200000 instructions simulated : ctaid=(6,0,0) tid=(31,0,0)
GPGPU-Sim PTX: 19300000 instructions simulated : ctaid=(12,0,0) tid=(63,0,0)
GPGPU-Sim PTX: 19400000 instructions simulated : ctaid=(37,0,0) tid=(95,0,0)
GPGPU-Sim PTX: 19500000 instructions simulated : ctaid=(4,0,0) tid=(63,0,0)
GPGPU-Sim uArch: cycles simulated: 36500  inst.: 19482208 (ipc=533.8) sim_rate=487055 (inst/sec) elapsed = 0:0:00:40 / Wed Mar  2 01:16:15 2016
GPGPU-Sim PTX: 19600000 instructions simulated : ctaid=(56,0,0) tid=(127,0,0)
GPGPU-Sim PTX: 19700000 instructions simulated : ctaid=(86,0,0) tid=(95,0,0)
GPGPU-Sim PTX: 19800000 instructions simulated : ctaid=(42,0,0) tid=(127,0,0)
GPGPU-Sim PTX: 19900000 instructions simulated : ctaid=(18,0,0) tid=(63,0,0)
GPGPU-Sim PTX: 20000000 instructions simulated : ctaid=(16,0,0) tid=(127,0,0)
GPGPU-Sim uArch: cycles simulated: 37500  inst.: 20023648 (ipc=534.0) sim_rate=488381 (inst/sec) elapsed = 0:0:00:41 / Wed Mar  2 01:16:16 2016
GPGPU-Sim PTX: 20100000 instructions simulated : ctaid=(10,0,0) tid=(95,0,0)
GPGPU-Sim PTX: 20200000 instructions simulated : ctaid=(23,0,0) tid=(31,0,0)
GPGPU-Sim PTX: 20300000 instructions simulated : ctaid=(1,0,0) tid=(31,0,0)
GPGPU-Sim PTX: 20400000 instructions simulated : ctaid=(33,0,0) tid=(63,0,0)
GPGPU-Sim PTX: 20500000 instructions simulated : ctaid=(100,0,0) tid=(31,0,0)
GPGPU-Sim PTX: 20600000 instructions simulated : ctaid=(88,0,0) tid=(63,0,0)
GPGPU-Sim uArch: cycles simulated: 38500  inst.: 20611424 (ipc=535.4) sim_rate=490748 (inst/sec) elapsed = 0:0:00:42 / Wed Mar  2 01:16:17 2016
GPGPU-Sim PTX: 20700000 instructions simulated : ctaid=(57,0,0) tid=(95,0,0)
GPGPU-Sim PTX: 20800000 instructions simulated : ctaid=(48,0,0) tid=(127,0,0)
GPGPU-Sim PTX: 20900000 instructions simulated : ctaid=(73,0,0) tid=(127,0,0)
GPGPU-Sim PTX: 21000000 instructions simulated : ctaid=(0,0,0) tid=(31,0,0)
GPGPU-Sim PTX: 21100000 instructions simulated : ctaid=(60,0,0) tid=(95,0,0)
GPGPU-Sim uArch: cycles simulated: 39500  inst.: 21156128 (ipc=535.6) sim_rate=492002 (inst/sec) elapsed = 0:0:00:43 / Wed Mar  2 01:16:18 2016
GPGPU-Sim PTX: 21200000 instructions simulated : ctaid=(23,0,0) tid=(63,0,0)
GPGPU-Sim PTX: 21300000 instructions simulated : ctaid=(75,0,0) tid=(95,0,0)
GPGPU-Sim PTX: 21400000 instructions simulated : ctaid=(4,0,0) tid=(31,0,0)
GPGPU-Sim uArch: cycles simulated: 40000  inst.: 21428224 (ipc=535.7) sim_rate=487005 (inst/sec) elapsed = 0:0:00:44 / Wed Mar  2 01:16:19 2016
GPGPU-Sim PTX: 21500000 instructions simulated : ctaid=(69,0,0) tid=(127,0,0)
GPGPU-Sim PTX: 21600000 instructions simulated : ctaid=(50,0,0) tid=(95,0,0)
GPGPU-Sim PTX: 21700000 instructions simulated : ctaid=(87,0,0) tid=(31,0,0)
GPGPU-Sim PTX: 21800000 instructions simulated : ctaid=(109,0,0) tid=(95,0,0)
GPGPU-Sim PTX: 21900000 instructions simulated : ctaid=(5,0,0) tid=(63,0,0)
GPGPU-Sim PTX: 22000000 instructions simulated : ctaid=(14,0,0) tid=(127,0,0)
GPGPU-Sim uArch: cycles simulated: 41000  inst.: 21983840 (ipc=536.2) sim_rate=488529 (inst/sec) elapsed = 0:0:00:45 / Wed Mar  2 01:16:20 2016
GPGPU-Sim PTX: 22100000 instructions simulated : ctaid=(50,0,0) tid=(127,0,0)
GPGPU-Sim PTX: 22200000 instructions simulated : ctaid=(53,0,0) tid=(31,0,0)
GPGPU-Sim PTX: 22300000 instructions simulated : ctaid=(83,0,0) tid=(31,0,0)
GPGPU-Sim PTX: 22400000 instructions simulated : ctaid=(52,0,0) tid=(127,0,0)
GPGPU-Sim PTX: 22500000 instructions simulated : ctaid=(22,0,0) tid=(127,0,0)
GPGPU-Sim uArch: cycles simulated: 42000  inst.: 22556064 (ipc=537.0) sim_rate=490349 (inst/sec) elapsed = 0:0:00:46 / Wed Mar  2 01:16:21 2016
GPGPU-Sim PTX: 22600000 instructions simulated : ctaid=(54,0,0) tid=(95,0,0)
GPGPU-Sim PTX: 22700000 instructions simulated : ctaid=(46,0,0) tid=(31,0,0)
GPGPU-Sim PTX: 22800000 instructions simulated : ctaid=(63,0,0) tid=(31,0,0)
GPGPU-Sim PTX: 22900000 instructions simulated : ctaid=(79,0,0) tid=(31,0,0)
GPGPU-Sim PTX: 23000000 instructions simulated : ctaid=(24,0,0) tid=(95,0,0)
GPGPU-Sim PTX: 23100000 instructions simulated : ctaid=(35,0,0) tid=(127,0,0)
GPGPU-Sim uArch: cycles simulated: 43000  inst.: 23084448 (ipc=536.8) sim_rate=491158 (inst/sec) elapsed = 0:0:00:47 / Wed Mar  2 01:16:22 2016
GPGPU-Sim PTX: 23200000 instructions simulated : ctaid=(80,0,0) tid=(31,0,0)
GPGPU-Sim PTX: 23300000 instructions simulated : ctaid=(55,0,0) tid=(63,0,0)
GPGPU-Sim PTX: 23400000 instructions simulated : ctaid=(3,0,0) tid=(127,0,0)
GPGPU-Sim PTX: 23500000 instructions simulated : ctaid=(6,0,0) tid=(31,0,0)
GPGPU-Sim PTX: 23600000 instructions simulated : ctaid=(36,0,0) tid=(127,0,0)
GPGPU-Sim uArch: cycles simulated: 44000  inst.: 23618784 (ipc=536.8) sim_rate=492058 (inst/sec) elapsed = 0:0:00:48 / Wed Mar  2 01:16:23 2016
GPGPU-Sim PTX: 23700000 instructions simulated : ctaid=(36,0,0) tid=(31,0,0)
GPGPU-Sim PTX: 23800000 instructions simulated : ctaid=(62,0,0) tid=(95,0,0)
GPGPU-Sim PTX: 23900000 instructions simulated : ctaid=(43,0,0) tid=(63,0,0)
GPGPU-Sim PTX: 24000000 instructions simulated : ctaid=(44,0,0) tid=(127,0,0)
GPGPU-Sim PTX: 24100000 instructions simulated : ctaid=(82,0,0) tid=(31,0,0)
GPGPU-Sim uArch: cycles simulated: 45000  inst.: 24149024 (ipc=536.6) sim_rate=492837 (inst/sec) elapsed = 0:0:00:49 / Wed Mar  2 01:16:24 2016
GPGPU-Sim PTX: 24200000 instructions simulated : ctaid=(21,0,0) tid=(127,0,0)
GPGPU-Sim PTX: 24300000 instructions simulated : ctaid=(92,0,0) tid=(31,0,0)
GPGPU-Sim PTX: 24400000 instructions simulated : ctaid=(69,0,0) tid=(31,0,0)
GPGPU-Sim PTX: 24500000 instructions simulated : ctaid=(71,0,0) tid=(31,0,0)
GPGPU-Sim PTX: 24600000 instructions simulated : ctaid=(43,0,0) tid=(31,0,0)
GPGPU-Sim PTX: 24700000 instructions simulated : ctaid=(59,0,0) tid=(31,0,0)
GPGPU-Sim uArch: cycles simulated: 46000  inst.: 24704512 (ipc=537.1) sim_rate=494090 (inst/sec) elapsed = 0:0:00:50 / Wed Mar  2 01:16:25 2016
GPGPU-Sim PTX: 24800000 instructions simulated : ctaid=(95,0,0) tid=(95,0,0)
GPGPU-Sim PTX: 24900000 instructions simulated : ctaid=(60,0,0) tid=(63,0,0)
GPGPU-Sim PTX: 25000000 instructions simulated : ctaid=(43,0,0) tid=(95,0,0)
GPGPU-Sim uArch: cycles simulated: 46500  inst.: 24990720 (ipc=537.4) sim_rate=490014 (inst/sec) elapsed = 0:0:00:51 / Wed Mar  2 01:16:26 2016
GPGPU-Sim PTX: 25100000 instructions simulated : ctaid=(43,0,0) tid=(127,0,0)
GPGPU-Sim PTX: 25200000 instructions simulated : ctaid=(54,0,0) tid=(95,0,0)
GPGPU-Sim PTX: 25300000 instructions simulated : ctaid=(23,0,0) tid=(127,0,0)
GPGPU-Sim PTX: 25400000 instructions simulated : ctaid=(47,0,0) tid=(95,0,0)
GPGPU-Sim PTX: 25500000 instructions simulated : ctaid=(1,0,0) tid=(95,0,0)
GPGPU-Sim uArch: cycles simulated: 47500  inst.: 25537312 (ipc=537.6) sim_rate=491102 (inst/sec) elapsed = 0:0:00:52 / Wed Mar  2 01:16:27 2016
GPGPU-Sim PTX: 25600000 instructions simulated : ctaid=(67,0,0) tid=(95,0,0)
GPGPU-Sim PTX: 25700000 instructions simulated : ctaid=(7,0,0) tid=(127,0,0)
GPGPU-Sim PTX: 25800000 instructions simulated : ctaid=(55,0,0) tid=(31,0,0)
GPGPU-Sim PTX: 25900000 instructions simulated : ctaid=(24,0,0) tid=(63,0,0)
GPGPU-Sim PTX: 26000000 instructions simulated : ctaid=(11,0,0) tid=(63,0,0)
GPGPU-Sim PTX: 26100000 instructions simulated : ctaid=(20,0,0) tid=(63,0,0)
GPGPU-Sim uArch: cycles simulated: 48500  inst.: 26081152 (ipc=537.8) sim_rate=492097 (inst/sec) elapsed = 0:0:00:53 / Wed Mar  2 01:16:28 2016
GPGPU-Sim PTX: 26200000 instructions simulated : ctaid=(21,0,0) tid=(63,0,0)
GPGPU-Sim PTX: 26300000 instructions simulated : ctaid=(51,0,0) tid=(31,0,0)
GPGPU-Sim PTX: 26400000 instructions simulated : ctaid=(58,0,0) tid=(31,0,0)
GPGPU-Sim PTX: 26500000 instructions simulated : ctaid=(2,0,0) tid=(31,0,0)
GPGPU-Sim PTX: 26600000 instructions simulated : ctaid=(69,0,0) tid=(63,0,0)
GPGPU-Sim uArch: cycles simulated: 49500  inst.: 26619392 (ipc=537.8) sim_rate=492951 (inst/sec) elapsed = 0:0:00:54 / Wed Mar  2 01:16:29 2016
GPGPU-Sim PTX: 26700000 instructions simulated : ctaid=(47,0,0) tid=(95,0,0)
GPGPU-Sim PTX: 26800000 instructions simulated : ctaid=(55,0,0) tid=(63,0,0)
GPGPU-Sim PTX: 26900000 instructions simulated : ctaid=(9,0,0) tid=(127,0,0)
GPGPU-Sim PTX: 27000000 instructions simulated : ctaid=(6,0,0) tid=(127,0,0)
GPGPU-Sim PTX: 27100000 instructions simulated : ctaid=(75,0,0) tid=(127,0,0)
GPGPU-Sim PTX: 27200000 instructions simulated : ctaid=(65,0,0) tid=(127,0,0)
GPGPU-Sim uArch: cycles simulated: 50500  inst.: 27173792 (ipc=538.1) sim_rate=494068 (inst/sec) elapsed = 0:0:00:55 / Wed Mar  2 01:16:30 2016
GPGPU-Sim PTX: 27300000 instructions simulated : ctaid=(50,0,0) tid=(31,0,0)
GPGPU-Sim PTX: 27400000 instructions simulated : ctaid=(0,0,0) tid=(95,0,0)
GPGPU-Sim PTX: 27500000 instructions simulated : ctaid=(54,0,0) tid=(31,0,0)
GPGPU-Sim PTX: 27600000 instructions simulated : ctaid=(14,0,0) tid=(63,0,0)
GPGPU-Sim PTX: 27700000 instructions simulated : ctaid=(58,0,0) tid=(31,0,0)
GPGPU-Sim uArch: cycles simulated: 51500  inst.: 27729056 (ipc=538.4) sim_rate=495161 (inst/sec) elapsed = 0:0:00:56 / Wed Mar  2 01:16:31 2016
GPGPU-Sim PTX: 27800000 instructions simulated : ctaid=(85,0,0) tid=(63,0,0)
GPGPU-Sim PTX: 27900000 instructions simulated : ctaid=(7,0,0) tid=(95,0,0)
GPGPU-Sim PTX: 28000000 instructions simulated : ctaid=(80,0,0) tid=(95,0,0)
GPGPU-Sim uArch: cycles simulated: 52000  inst.: 27999104 (ipc=538.4) sim_rate=491212 (inst/sec) elapsed = 0:0:00:57 / Wed Mar  2 01:16:32 2016
GPGPU-Sim PTX: 28100000 instructions simulated : ctaid=(15,0,0) tid=(127,0,0)
GPGPU-Sim PTX: 28200000 instructions simulated : ctaid=(22,0,0) tid=(31,0,0)
GPGPU-Sim PTX: 28300000 instructions simulated : ctaid=(17,0,0) tid=(127,0,0)
GPGPU-Sim PTX: 28400000 instructions simulated : ctaid=(39,0,0) tid=(95,0,0)
GPGPU-Sim PTX: 28500000 instructions simulated : ctaid=(39,0,0) tid=(31,0,0)
GPGPU-Sim uArch: cycles simulated: 53000  inst.: 28549152 (ipc=538.7) sim_rate=492226 (inst/sec) elapsed = 0:0:00:58 / Wed Mar  2 01:16:33 2016
GPGPU-Sim PTX: 28600000 instructions simulated : ctaid=(21,0,0) tid=(63,0,0)
GPGPU-Sim PTX: 28700000 instructions simulated : ctaid=(13,0,0) tid=(63,0,0)
GPGPU-Sim PTX: 28800000 instructions simulated : ctaid=(5,0,0) tid=(95,0,0)
GPGPU-Sim PTX: 28900000 instructions simulated : ctaid=(86,0,0) tid=(31,0,0)
GPGPU-Sim PTX: 29000000 instructions simulated : ctaid=(0,0,0) tid=(31,0,0)
GPGPU-Sim PTX: 29100000 instructions simulated : ctaid=(24,0,0) tid=(63,0,0)
GPGPU-Sim uArch: cycles simulated: 54000  inst.: 29115424 (ipc=539.2) sim_rate=493481 (inst/sec) elapsed = 0:0:00:59 / Wed Mar  2 01:16:34 2016
GPGPU-Sim PTX: 29200000 instructions simulated : ctaid=(83,0,0) tid=(31,0,0)
GPGPU-Sim PTX: 29300000 instructions simulated : ctaid=(79,0,0) tid=(31,0,0)
GPGPU-Sim PTX: 29400000 instructions simulated : ctaid=(70,0,0) tid=(95,0,0)
GPGPU-Sim PTX: 29500000 instructions simulated : ctaid=(5,0,0) tid=(127,0,0)
GPGPU-Sim PTX: 29600000 instructions simulated : ctaid=(14,0,0) tid=(63,0,0)
GPGPU-Sim PTX: 29700000 instructions simulated : ctaid=(58,0,0) tid=(95,0,0)
GPGPU-Sim uArch: cycles simulated: 55000  inst.: 29683392 (ipc=539.7) sim_rate=494723 (inst/sec) elapsed = 0:0:01:00 / Wed Mar  2 01:16:35 2016
GPGPU-Sim PTX: 29800000 instructions simulated : ctaid=(20,0,0) tid=(31,0,0)
GPGPU-Sim PTX: 29900000 instructions simulated : ctaid=(114,0,0) tid=(63,0,0)
GPGPU-Sim PTX: 30000000 instructions simulated : ctaid=(14,0,0) tid=(31,0,0)
GPGPU-Sim PTX: 30100000 instructions simulated : ctaid=(59,0,0) tid=(63,0,0)
GPGPU-Sim PTX: 30200000 instructions simulated : ctaid=(46,0,0) tid=(63,0,0)
GPGPU-Sim PTX: 30300000 instructions simulated : ctaid=(0,0,0) tid=(127,0,0)
GPGPU-Sim uArch: cycles simulated: 56000  inst.: 30280544 (ipc=540.7) sim_rate=496402 (inst/sec) elapsed = 0:0:01:01 / Wed Mar  2 01:16:36 2016
GPGPU-Sim PTX: 30400000 instructions simulated : ctaid=(43,0,0) tid=(127,0,0)
GPGPU-Sim PTX: 30500000 instructions simulated : ctaid=(62,0,0) tid=(95,0,0)
GPGPU-Sim PTX: 30600000 instructions simulated : ctaid=(8,0,0) tid=(95,0,0)
GPGPU-Sim PTX: 30700000 instructions simulated : ctaid=(67,0,0) tid=(95,0,0)
GPGPU-Sim PTX: 30800000 instructions simulated : ctaid=(8,0,0) tid=(127,0,0)
GPGPU-Sim uArch: cycles simulated: 57000  inst.: 30814400 (ipc=540.6) sim_rate=497006 (inst/sec) elapsed = 0:0:01:02 / Wed Mar  2 01:16:37 2016
GPGPU-Sim PTX: 30900000 instructions simulated : ctaid=(7,0,0) tid=(31,0,0)
GPGPU-Sim PTX: 31000000 instructions simulated : ctaid=(6,0,0) tid=(31,0,0)
GPGPU-Sim PTX: 31100000 instructions simulated : ctaid=(58,0,0) tid=(95,0,0)
GPGPU-Sim uArch: cycles simulated: 57500  inst.: 31091168 (ipc=540.7) sim_rate=493510 (inst/sec) elapsed = 0:0:01:03 / Wed Mar  2 01:16:38 2016
GPGPU-Sim PTX: 31200000 instructions simulated : ctaid=(84,0,0) tid=(31,0,0)
GPGPU-Sim PTX: 31300000 instructions simulated : ctaid=(30,0,0) tid=(95,0,0)
GPGPU-Sim PTX: 31400000 instructions simulated : ctaid=(49,0,0) tid=(63,0,0)
GPGPU-Sim PTX: 31500000 instructions simulated : ctaid=(68,0,0) tid=(95,0,0)
GPGPU-Sim PTX: 31600000 instructions simulated : ctaid=(70,0,0) tid=(95,0,0)
GPGPU-Sim uArch: cycles simulated: 58500  inst.: 31656576 (ipc=541.1) sim_rate=494634 (inst/sec) elapsed = 0:0:01:04 / Wed Mar  2 01:16:39 2016
GPGPU-Sim PTX: 31700000 instructions simulated : ctaid=(31,0,0) tid=(95,0,0)
GPGPU-Sim PTX: 31800000 instructions simulated : ctaid=(23,0,0) tid=(63,0,0)
GPGPU-Sim PTX: 31900000 instructions simulated : ctaid=(3,0,0) tid=(127,0,0)
GPGPU-Sim PTX: 32000000 instructions simulated : ctaid=(59,0,0) tid=(127,0,0)
GPGPU-Sim PTX: 32100000 instructions simulated : ctaid=(69,0,0) tid=(95,0,0)
GPGPU-Sim PTX: 32200000 instructions simulated : ctaid=(91,0,0) tid=(95,0,0)
GPGPU-Sim uArch: cycles simulated: 59500  inst.: 32193600 (ipc=541.1) sim_rate=495286 (inst/sec) elapsed = 0:0:01:05 / Wed Mar  2 01:16:40 2016
GPGPU-Sim PTX: 32300000 instructions simulated : ctaid=(53,0,0) tid=(95,0,0)
GPGPU-Sim PTX: 32400000 instructions simulated : ctaid=(0,0,0) tid=(127,0,0)
GPGPU-Sim PTX: 32500000 instructions simulated : ctaid=(45,0,0) tid=(31,0,0)
GPGPU-Sim PTX: 32600000 instructions simulated : ctaid=(52,0,0) tid=(31,0,0)
GPGPU-Sim PTX: 32700000 instructions simulated : ctaid=(93,0,0) tid=(127,0,0)
GPGPU-Sim uArch: cycles simulated: 60500  inst.: 32746464 (ipc=541.3) sim_rate=496158 (inst/sec) elapsed = 0:0:01:06 / Wed Mar  2 01:16:41 2016
GPGPU-Sim PTX: 32800000 instructions simulated : ctaid=(27,0,0) tid=(63,0,0)
GPGPU-Sim PTX: 32900000 instructions simulated : ctaid=(23,0,0) tid=(31,0,0)
GPGPU-Sim PTX: 33000000 instructions simulated : ctaid=(19,0,0) tid=(31,0,0)
GPGPU-Sim PTX: 33100000 instructions simulated : ctaid=(118,0,0) tid=(31,0,0)
GPGPU-Sim PTX: 33200000 instructions simulated : ctaid=(62,0,0) tid=(95,0,0)
GPGPU-Sim PTX: 33300000 instructions simulated : ctaid=(65,0,0) tid=(31,0,0)
GPGPU-Sim uArch: cycles simulated: 61500  inst.: 33302528 (ipc=541.5) sim_rate=497052 (inst/sec) elapsed = 0:0:01:07 / Wed Mar  2 01:16:42 2016
GPGPU-Sim PTX: 33400000 instructions simulated : ctaid=(56,0,0) tid=(63,0,0)
GPGPU-Sim PTX: 33500000 instructions simulated : ctaid=(7,0,0) tid=(127,0,0)
GPGPU-Sim PTX: 33600000 instructions simulated : ctaid=(39,0,0) tid=(95,0,0)
GPGPU-Sim PTX: 33700000 instructions simulated : ctaid=(63,0,0) tid=(31,0,0)
GPGPU-Sim PTX: 33800000 instructions simulated : ctaid=(31,0,0) tid=(31,0,0)
GPGPU-Sim uArch: cycles simulated: 62500  inst.: 33806848 (ipc=540.9) sim_rate=497159 (inst/sec) elapsed = 0:0:01:08 / Wed Mar  2 01:16:43 2016
GPGPU-Sim PTX: 33900000 instructions simulated : ctaid=(63,0,0) tid=(95,0,0)
GPGPU-Sim PTX: 34000000 instructions simulated : ctaid=(76,0,0) tid=(95,0,0)
GPGPU-Sim PTX: 34100000 instructions simulated : ctaid=(22,0,0) tid=(127,0,0)
GPGPU-Sim PTX: 34200000 instructions simulated : ctaid=(32,0,0) tid=(95,0,0)
GPGPU-Sim PTX: 34300000 instructions simulated : ctaid=(61,0,0) tid=(63,0,0)
GPGPU-Sim uArch: cycles simulated: 63500  inst.: 34295584 (ipc=540.1) sim_rate=497037 (inst/sec) elapsed = 0:0:01:09 / Wed Mar  2 01:16:44 2016
GPGPU-Sim PTX: 34400000 instructions simulated : ctaid=(52,0,0) tid=(63,0,0)
GPGPU-Sim PTX: 34500000 instructions simulated : ctaid=(22,0,0) tid=(31,0,0)
GPGPU-Sim PTX: 34600000 instructions simulated : ctaid=(29,0,0) tid=(127,0,0)
GPGPU-Sim PTX: 34700000 instructions simulated : ctaid=(42,0,0) tid=(31,0,0)
GPGPU-Sim PTX: 34800000 instructions simulated : ctaid=(70,0,0) tid=(31,0,0)
GPGPU-Sim uArch: cycles simulated: 64500  inst.: 34828288 (ipc=540.0) sim_rate=497546 (inst/sec) elapsed = 0:0:01:10 / Wed Mar  2 01:16:45 2016
GPGPU-Sim PTX: 34900000 instructions simulated : ctaid=(80,0,0) tid=(31,0,0)
GPGPU-Sim uArch: Shader 4 finished CTA #0 (64732,0), 7 CTAs running
GPGPU-Sim uArch: core:  4, cta: 0 initialized @(64733,0)
GPGPU-Sim PTX: 35000000 instructions simulated : ctaid=(106,0,0) tid=(95,0,0)
GPGPU-Sim uArch: cycles simulated: 65000  inst.: 35062304 (ipc=539.4) sim_rate=493835 (inst/sec) elapsed = 0:0:01:11 / Wed Mar  2 01:16:46 2016
GPGPU-Sim PTX: 35100000 instructions simulated : ctaid=(53,0,0) tid=(31,0,0)
GPGPU-Sim PTX: 35200000 instructions simulated : ctaid=(92,0,0) tid=(95,0,0)
GPGPU-Sim uArch: Shader 2 finished CTA #0 (65266,0), 7 CTAs running
GPGPU-Sim uArch: core:  2, cta: 0 initialized @(65267,0)
GPGPU-Sim PTX: 35300000 instructions simulated : ctaid=(49,0,0) tid=(63,0,0)
GPGPU-Sim PTX: 35400000 instructions simulated : ctaid=(70,0,0) tid=(31,0,0)
GPGPU-Sim PTX: 35500000 instructions simulated : ctaid=(79,0,0) tid=(95,0,0)
GPGPU-Sim uArch: cycles simulated: 66000  inst.: 35547456 (ipc=538.6) sim_rate=493714 (inst/sec) elapsed = 0:0:01:12 / Wed Mar  2 01:16:47 2016
GPGPU-Sim PTX: 35600000 instructions simulated : ctaid=(55,0,0) tid=(95,0,0)
GPGPU-Sim PTX: 35700000 instructions simulated : ctaid=(105,0,0) tid=(127,0,0)
GPGPU-Sim uArch: Shader 1 finished CTA #0 (66393,0), 7 CTAs running
GPGPU-Sim uArch: core:  1, cta: 0 initialized @(66394,0)
GPGPU-Sim PTX: 35800000 instructions simulated : ctaid=(39,0,0) tid=(127,0,0)
GPGPU-Sim PTX: 35900000 instructions simulated : ctaid=(85,0,0) tid=(63,0,0)
GPGPU-Sim PTX: 36000000 instructions simulated : ctaid=(74,0,0) tid=(95,0,0)
GPGPU-Sim uArch: Shader 9 finished CTA #0 (66853,0), 7 CTAs running
GPGPU-Sim uArch: core:  9, cta: 0 initialized @(66854,0)
GPGPU-Sim uArch: cycles simulated: 67000  inst.: 36055040 (ipc=538.1) sim_rate=493904 (inst/sec) elapsed = 0:0:01:13 / Wed Mar  2 01:16:48 2016
GPGPU-Sim PTX: 36100000 instructions simulated : ctaid=(37,0,0) tid=(31,0,0)
GPGPU-Sim uArch: Shader 3 finished CTA #0 (67064,0), 7 CTAs running
GPGPU-Sim uArch: core:  3, cta: 0 initialized @(67065,0)
GPGPU-Sim uArch: Shader 5 finished CTA #0 (67190,0), 7 CTAs running
GPGPU-Sim uArch: core:  5, cta: 0 initialized @(67191,0)
GPGPU-Sim PTX: 36200000 instructions simulated : ctaid=(117,0,0) tid=(31,0,0)
GPGPU-Sim PTX: 36300000 instructions simulated : ctaid=(68,0,0) tid=(31,0,0)
GPGPU-Sim uArch: Shader 0 finished CTA #0 (67430,0), 7 CTAs running
GPGPU-Sim uArch: core:  0, cta: 0 initialized @(67431,0)
GPGPU-Sim PTX: 36400000 instructions simulated : ctaid=(93,0,0) tid=(31,0,0)
GPGPU-Sim uArch: Shader 6 finished CTA #0 (67622,0), 7 CTAs running
GPGPU-Sim uArch: core:  6, cta: 0 initialized @(67623,0)
GPGPU-Sim uArch: Shader 6 finished CTA #1 (67711,0), 7 CTAs running
GPGPU-Sim uArch: core:  6, cta: 1 initialized @(67712,0)
GPGPU-Sim uArch: Shader 11 finished CTA #0 (67763,0), 7 CTAs running
GPGPU-Sim uArch: core: 11, cta: 0 initialized @(67764,0)
GPGPU-Sim PTX: 36500000 instructions simulated : ctaid=(105,0,0) tid=(31,0,0)
GPGPU-Sim uArch: Shader 14 finished CTA #0 (67910,0), 7 CTAs running
GPGPU-Sim uArch: core: 14, cta: 0 initialized @(67911,0)
GPGPU-Sim uArch: cycles simulated: 68000  inst.: 36540544 (ipc=537.4) sim_rate=493791 (inst/sec) elapsed = 0:0:01:14 / Wed Mar  2 01:16:49 2016
GPGPU-Sim uArch: Shader 8 finished CTA #0 (68006,0), 7 CTAs running
GPGPU-Sim uArch: core:  8, cta: 0 initialized @(68007,0)
GPGPU-Sim PTX: 36600000 instructions simulated : ctaid=(80,0,0) tid=(95,0,0)
GPGPU-Sim uArch: Shader 0 finished CTA #1 (68141,0), 7 CTAs running
GPGPU-Sim uArch: core:  0, cta: 1 initialized @(68142,0)
GPGPU-Sim PTX: 36700000 instructions simulated : ctaid=(86,0,0) tid=(127,0,0)
GPGPU-Sim uArch: Shader 2 finished CTA #1 (68252,0), 7 CTAs running
GPGPU-Sim uArch: core:  2, cta: 1 initialized @(68253,0)
GPGPU-Sim uArch: Shader 9 finished CTA #1 (68357,0), 7 CTAs running
GPGPU-Sim uArch: core:  9, cta: 1 initialized @(68358,0)
GPGPU-Sim PTX: 36800000 instructions simulated : ctaid=(94,0,0) tid=(95,0,0)
GPGPU-Sim uArch: Shader 11 finished CTA #1 (68548,0), 7 CTAs running
GPGPU-Sim uArch: core: 11, cta: 1 initialized @(68549,0)
GPGPU-Sim PTX: 36900000 instructions simulated : ctaid=(64,0,0) tid=(95,0,0)
GPGPU-Sim uArch: Shader 8 finished CTA #1 (68629,0), 7 CTAs running
GPGPU-Sim uArch: core:  8, cta: 1 initialized @(68630,0)
GPGPU-Sim PTX: 37000000 instructions simulated : ctaid=(105,0,0) tid=(95,0,0)
GPGPU-Sim uArch: Shader 13 finished CTA #0 (68825,0), 7 CTAs running
GPGPU-Sim uArch: core: 13, cta: 0 initialized @(68826,0)
GPGPU-Sim uArch: Shader 14 finished CTA #1 (68924,0), 7 CTAs running
GPGPU-Sim uArch: core: 14, cta: 1 initialized @(68925,0)
GPGPU-Sim uArch: Shader 1 finished CTA #1 (68969,0), 7 CTAs running
GPGPU-Sim uArch: core:  1, cta: 1 initialized @(68970,0)
GPGPU-Sim PTX: 37100000 instructions simulated : ctaid=(113,0,0) tid=(31,0,0)
GPGPU-Sim uArch: cycles simulated: 69000  inst.: 37064544 (ipc=537.2) sim_rate=494193 (inst/sec) elapsed = 0:0:01:15 / Wed Mar  2 01:16:50 2016
GPGPU-Sim PTX: 37200000 instructions simulated : ctaid=(60,0,0) tid=(63,0,0)
GPGPU-Sim uArch: Shader 7 finished CTA #0 (69297,0), 7 CTAs running
GPGPU-Sim uArch: core:  7, cta: 0 initialized @(69298,0)
GPGPU-Sim PTX: 37300000 instructions simulated : ctaid=(103,0,0) tid=(63,0,0)
GPGPU-Sim uArch: Shader 13 finished CTA #1 (69491,0), 7 CTAs running
GPGPU-Sim uArch: core: 13, cta: 1 initialized @(69492,0)
GPGPU-Sim PTX: 37400000 instructions simulated : ctaid=(77,0,0) tid=(63,0,0)
GPGPU-Sim uArch: Shader 5 finished CTA #1 (69624,0), 7 CTAs running
GPGPU-Sim uArch: core:  5, cta: 1 initialized @(69625,0)
GPGPU-Sim PTX: 37500000 instructions simulated : ctaid=(116,0,0) tid=(127,0,0)
GPGPU-Sim uArch: Shader 7 finished CTA #1 (69749,0), 7 CTAs running
GPGPU-Sim uArch: core:  7, cta: 1 initialized @(69750,0)
GPGPU-Sim PTX: 37600000 instructions simulated : ctaid=(57,0,0) tid=(127,0,0)
GPGPU-Sim uArch: Shader 2 finished CTA #2 (69987,0), 7 CTAs running
GPGPU-Sim uArch: core:  2, cta: 2 initialized @(69988,0)
GPGPU-Sim uArch: Shader 6 finished CTA #2 (69996,0), 7 CTAs running
GPGPU-Sim uArch: core:  6, cta: 2 initialized @(69997,0)
GPGPU-Sim uArch: cycles simulated: 70000  inst.: 37619776 (ipc=537.4) sim_rate=494997 (inst/sec) elapsed = 0:0:01:16 / Wed Mar  2 01:16:51 2016
GPGPU-Sim uArch: Shader 10 finished CTA #0 (70003,0), 7 CTAs running
GPGPU-Sim uArch: core: 10, cta: 0 initialized @(70004,0)
GPGPU-Sim PTX: 37700000 instructions simulated : ctaid=(32,0,0) tid=(63,0,0)
GPGPU-Sim PTX: 37800000 instructions simulated : ctaid=(105,0,0) tid=(95,0,0)
GPGPU-Sim uArch: Shader 4 finished CTA #1 (70370,0), 7 CTAs running
GPGPU-Sim uArch: core:  4, cta: 1 initialized @(70371,0)
GPGPU-Sim PTX: 37900000 instructions simulated : ctaid=(118,0,0) tid=(127,0,0)
GPGPU-Sim PTX: 38000000 instructions simulated : ctaid=(136,0,0) tid=(31,0,0)
GPGPU-Sim PTX: 38100000 instructions simulated : ctaid=(62,0,0) tid=(127,0,0)
GPGPU-Sim uArch: Shader 12 finished CTA #0 (70721,0), 7 CTAs running
GPGPU-Sim uArch: core: 12, cta: 0 initialized @(70722,0)
GPGPU-Sim uArch: Shader 9 finished CTA #2 (70727,0), 7 CTAs running
GPGPU-Sim uArch: core:  9, cta: 2 initialized @(70728,0)
GPGPU-Sim PTX: 38200000 instructions simulated : ctaid=(66,0,0) tid=(127,0,0)
GPGPU-Sim uArch: Shader 12 finished CTA #1 (70961,0), 7 CTAs running
GPGPU-Sim uArch: core: 12, cta: 1 initialized @(70962,0)
GPGPU-Sim uArch: cycles simulated: 71000  inst.: 38235456 (ipc=538.5) sim_rate=496564 (inst/sec) elapsed = 0:0:01:17 / Wed Mar  2 01:16:52 2016
GPGPU-Sim PTX: 38300000 instructions simulated : ctaid=(117,0,0) tid=(63,0,0)
GPGPU-Sim uArch: Shader 11 finished CTA #2 (71068,0), 7 CTAs running
GPGPU-Sim uArch: core: 11, cta: 2 initialized @(71069,0)
GPGPU-Sim uArch: Shader 3 finished CTA #1 (71172,0), 7 CTAs running
GPGPU-Sim uArch: core:  3, cta: 1 initialized @(71173,0)
GPGPU-Sim PTX: 38400000 instructions simulated : ctaid=(72,0,0) tid=(95,0,0)
GPGPU-Sim uArch: Shader 5 finished CTA #2 (71345,0), 7 CTAs running
GPGPU-Sim uArch: core:  5, cta: 2 initialized @(71346,0)
GPGPU-Sim PTX: 38500000 instructions simulated : ctaid=(61,0,0) tid=(95,0,0)
GPGPU-Sim uArch: Shader 0 finished CTA #2 (71490,0), 7 CTAs running
GPGPU-Sim uArch: core:  0, cta: 2 initialized @(71491,0)
GPGPU-Sim uArch: cycles simulated: 71500  inst.: 38540608 (ipc=539.0) sim_rate=494110 (inst/sec) elapsed = 0:0:01:18 / Wed Mar  2 01:16:53 2016
GPGPU-Sim PTX: 38600000 instructions simulated : ctaid=(151,0,0) tid=(31,0,0)
GPGPU-Sim PTX: 38700000 instructions simulated : ctaid=(78,0,0) tid=(31,0,0)
GPGPU-Sim PTX: 38800000 instructions simulated : ctaid=(76,0,0) tid=(127,0,0)
GPGPU-Sim PTX: 38900000 instructions simulated : ctaid=(124,0,0) tid=(95,0,0)
GPGPU-Sim PTX: 39000000 instructions simulated : ctaid=(84,0,0) tid=(95,0,0)
GPGPU-Sim PTX: 39100000 instructions simulated : ctaid=(73,0,0) tid=(63,0,0)
GPGPU-Sim PTX: 39200000 instructions simulated : ctaid=(91,0,0) tid=(63,0,0)
GPGPU-Sim uArch: cycles simulated: 72500  inst.: 39159552 (ipc=540.1) sim_rate=495690 (inst/sec) elapsed = 0:0:01:19 / Wed Mar  2 01:16:54 2016
GPGPU-Sim PTX: 39300000 instructions simulated : ctaid=(89,0,0) tid=(31,0,0)
GPGPU-Sim PTX: 39400000 instructions simulated : ctaid=(125,0,0) tid=(63,0,0)
GPGPU-Sim uArch: Shader 4 finished CTA #2 (73016,0), 7 CTAs running
GPGPU-Sim uArch: core:  4, cta: 2 initialized @(73017,0)
GPGPU-Sim PTX: 39500000 instructions simulated : ctaid=(30,0,0) tid=(63,0,0)
GPGPU-Sim uArch: Shader 10 finished CTA #1 (73193,0), 7 CTAs running
GPGPU-Sim uArch: core: 10, cta: 1 initialized @(73194,0)
GPGPU-Sim PTX: 39600000 instructions simulated : ctaid=(156,0,0) tid=(127,0,0)
GPGPU-Sim uArch: Shader 14 finished CTA #2 (73266,0), 7 CTAs running
GPGPU-Sim uArch: core: 14, cta: 2 initialized @(73267,0)
GPGPU-Sim PTX: 39700000 instructions simulated : ctaid=(121,0,0) tid=(127,0,0)
GPGPU-Sim uArch: cycles simulated: 73500  inst.: 39713568 (ipc=540.3) sim_rate=496419 (inst/sec) elapsed = 0:0:01:20 / Wed Mar  2 01:16:55 2016
GPGPU-Sim PTX: 39800000 instructions simulated : ctaid=(76,0,0) tid=(127,0,0)
GPGPU-Sim uArch: Shader 8 finished CTA #2 (73750,0), 7 CTAs running
GPGPU-Sim uArch: core:  8, cta: 2 initialized @(73751,0)
GPGPU-Sim PTX: 39900000 instructions simulated : ctaid=(49,0,0) tid=(127,0,0)
GPGPU-Sim PTX: 40000000 instructions simulated : ctaid=(120,0,0) tid=(63,0,0)
GPGPU-Sim uArch: Shader 7 finished CTA #2 (73949,0), 7 CTAs running
GPGPU-Sim uArch: core:  7, cta: 2 initialized @(73950,0)
GPGPU-Sim uArch: cycles simulated: 74000  inst.: 39979168 (ipc=540.3) sim_rate=493569 (inst/sec) elapsed = 0:0:01:21 / Wed Mar  2 01:16:56 2016
GPGPU-Sim PTX: 40100000 instructions simulated : ctaid=(121,0,0) tid=(31,0,0)
GPGPU-Sim PTX: 40200000 instructions simulated : ctaid=(74,0,0) tid=(63,0,0)
GPGPU-Sim PTX: 40300000 instructions simulated : ctaid=(77,0,0) tid=(31,0,0)
GPGPU-Sim uArch: Shader 0 finished CTA #3 (74533,0), 7 CTAs running
GPGPU-Sim uArch: core:  0, cta: 3 initialized @(74534,0)
GPGPU-Sim PTX: 40400000 instructions simulated : ctaid=(82,0,0) tid=(127,0,0)
GPGPU-Sim uArch: Shader 3 finished CTA #2 (74773,0), 7 CTAs running
GPGPU-Sim uArch: core:  3, cta: 2 initialized @(74774,0)
GPGPU-Sim uArch: Shader 1 finished CTA #2 (74792,0), 7 CTAs running
GPGPU-Sim uArch: core:  1, cta: 2 initialized @(74793,0)
GPGPU-Sim PTX: 40500000 instructions simulated : ctaid=(125,0,0) tid=(63,0,0)
GPGPU-Sim uArch: cycles simulated: 75000  inst.: 40512896 (ipc=540.2) sim_rate=494059 (inst/sec) elapsed = 0:0:01:22 / Wed Mar  2 01:16:57 2016
GPGPU-Sim uArch: Shader 12 finished CTA #2 (75080,0), 7 CTAs running
GPGPU-Sim uArch: core: 12, cta: 2 initialized @(75081,0)
GPGPU-Sim PTX: 40600000 instructions simulated : ctaid=(140,0,0) tid=(31,0,0)
GPGPU-Sim PTX: 40700000 instructions simulated : ctaid=(110,0,0) tid=(31,0,0)
GPGPU-Sim uArch: Shader 3 finished CTA #3 (75387,0), 7 CTAs running
GPGPU-Sim uArch: core:  3, cta: 3 initialized @(75388,0)
GPGPU-Sim PTX: 40800000 instructions simulated : ctaid=(104,0,0) tid=(127,0,0)
GPGPU-Sim uArch: Shader 13 finished CTA #2 (75622,0), 7 CTAs running
GPGPU-Sim uArch: core: 13, cta: 2 initialized @(75623,0)
GPGPU-Sim PTX: 40900000 instructions simulated : ctaid=(82,0,0) tid=(63,0,0)
GPGPU-Sim PTX: 41000000 instructions simulated : ctaid=(121,0,0) tid=(95,0,0)
GPGPU-Sim PTX: 41100000 instructions simulated : ctaid=(76,0,0) tid=(95,0,0)
GPGPU-Sim uArch: cycles simulated: 76000  inst.: 41051168 (ipc=540.1) sim_rate=494592 (inst/sec) elapsed = 0:0:01:23 / Wed Mar  2 01:16:58 2016
GPGPU-Sim uArch: Shader 6 finished CTA #3 (76090,0), 7 CTAs running
GPGPU-Sim uArch: core:  6, cta: 3 initialized @(76091,0)
GPGPU-Sim uArch: Shader 10 finished CTA #2 (76100,0), 7 CTAs running
GPGPU-Sim uArch: core: 10, cta: 2 initialized @(76101,0)
GPGPU-Sim PTX: 41200000 instructions simulated : ctaid=(145,0,0) tid=(95,0,0)
GPGPU-Sim uArch: Shader 1 finished CTA #3 (76340,0), 7 CTAs running
GPGPU-Sim uArch: core:  1, cta: 3 initialized @(76341,0)
GPGPU-Sim PTX: 41300000 instructions simulated : ctaid=(94,0,0) tid=(95,0,0)
GPGPU-Sim PTX: 41400000 instructions simulated : ctaid=(139,0,0) tid=(31,0,0)
GPGPU-Sim PTX: 41500000 instructions simulated : ctaid=(125,0,0) tid=(95,0,0)
GPGPU-Sim PTX: 41600000 instructions simulated : ctaid=(81,0,0) tid=(127,0,0)
GPGPU-Sim uArch: cycles simulated: 77000  inst.: 41621696 (ipc=540.5) sim_rate=495496 (inst/sec) elapsed = 0:0:01:24 / Wed Mar  2 01:16:59 2016
GPGPU-Sim PTX: 41700000 instructions simulated : ctaid=(86,0,0) tid=(63,0,0)
GPGPU-Sim PTX: 41800000 instructions simulated : ctaid=(63,0,0) tid=(127,0,0)
GPGPU-Sim PTX: 41900000 instructions simulated : ctaid=(57,0,0) tid=(63,0,0)
GPGPU-Sim uArch: cycles simulated: 77500  inst.: 41902688 (ipc=540.7) sim_rate=492972 (inst/sec) elapsed = 0:0:01:25 / Wed Mar  2 01:17:00 2016
GPGPU-Sim uArch: Shader 9 finished CTA #3 (77555,0), 7 CTAs running
GPGPU-Sim uArch: core:  9, cta: 3 initialized @(77556,0)
GPGPU-Sim PTX: 42000000 instructions simulated : ctaid=(66,0,0) tid=(127,0,0)
GPGPU-Sim PTX: 42100000 instructions simulated : ctaid=(128,0,0) tid=(31,0,0)
GPGPU-Sim PTX: 42200000 instructions simulated : ctaid=(72,0,0) tid=(127,0,0)
GPGPU-Sim uArch: Shader 5 finished CTA #3 (77968,0), 7 CTAs running
GPGPU-Sim uArch: core:  5, cta: 3 initialized @(77969,0)
GPGPU-Sim PTX: 42300000 instructions simulated : ctaid=(80,0,0) tid=(95,0,0)
GPGPU-Sim PTX: 42400000 instructions simulated : ctaid=(125,0,0) tid=(127,0,0)
GPGPU-Sim PTX: 42500000 instructions simulated : ctaid=(149,0,0) tid=(31,0,0)
GPGPU-Sim uArch: cycles simulated: 78500  inst.: 42468768 (ipc=541.0) sim_rate=493822 (inst/sec) elapsed = 0:0:01:26 / Wed Mar  2 01:17:01 2016
GPGPU-Sim uArch: Shader 2 finished CTA #3 (78501,0), 7 CTAs running
GPGPU-Sim uArch: core:  2, cta: 3 initialized @(78502,0)
GPGPU-Sim uArch: Shader 11 finished CTA #3 (78508,0), 7 CTAs running
GPGPU-Sim uArch: core: 11, cta: 3 initialized @(78509,0)
GPGPU-Sim PTX: 42600000 instructions simulated : ctaid=(84,0,0) tid=(95,0,0)
GPGPU-Sim PTX: 42700000 instructions simulated : ctaid=(103,0,0) tid=(63,0,0)
GPGPU-Sim PTX: 42800000 instructions simulated : ctaid=(98,0,0) tid=(95,0,0)
GPGPU-Sim uArch: Shader 14 finished CTA #3 (79100,0), 7 CTAs running
GPGPU-Sim uArch: core: 14, cta: 3 initialized @(79101,0)
GPGPU-Sim PTX: 42900000 instructions simulated : ctaid=(126,0,0) tid=(63,0,0)
GPGPU-Sim uArch: Shader 8 finished CTA #3 (79290,0), 7 CTAs running
GPGPU-Sim uArch: core:  8, cta: 3 initialized @(79291,0)
GPGPU-Sim PTX: 43000000 instructions simulated : ctaid=(103,0,0) tid=(95,0,0)
GPGPU-Sim PTX: 43100000 instructions simulated : ctaid=(130,0,0) tid=(31,0,0)
GPGPU-Sim uArch: cycles simulated: 79500  inst.: 43053760 (ipc=541.6) sim_rate=494870 (inst/sec) elapsed = 0:0:01:27 / Wed Mar  2 01:17:02 2016
GPGPU-Sim uArch: Shader 4 finished CTA #3 (79560,0), 7 CTAs running
GPGPU-Sim uArch: core:  4, cta: 3 initialized @(79561,0)
GPGPU-Sim PTX: 43200000 instructions simulated : ctaid=(135,0,0) tid=(95,0,0)
[...]
max_icnt2mem_latency = 1083 
max_icnt2sh_latency = 362248 
mrq_lat_table:122499 	3675 	5694 	14149 	42542 	66812 	91495 	70116 	19602 	917 	8 	0 	0 	0 	0 	0 	0 	0 	0 	0 	0 	0 	0 	0 	0 	0 	0 	0 	0 	0 	0 	0 	
dq_lat_table:0 	0 	0 	0 	0 	0 	0 	0 	0 	0 	0 	0 	0 	0 	0 	0 	0 	0 	0 	0 	0 	0 	0 	0 	0 	0 	0 	0 	0 	0 	0 	0 	
mf_lat_table:0 	0 	0 	0 	0 	0 	0 	100 	39181 	249134 	24100 	0 	0 	0 	0 	0 	0 	0 	0 	0 	0 	0 	0 	0 	0 	0 	0 	0 	0 	0 	0 	0 	
icnt2mem_lat_table:0 	0 	0 	20944 	10560 	22123 	71765 	84156 	97441 	5643 	3 	0 	0 	0 	0 	0 	0 	0 	0 	0 	0 	0 	0 	0 	
icnt2sh_lat_table:0 	0 	0 	134935 	50708 	1862 	10 	0 	0 	0 	0 	95 	1408 	3001 	5924 	11576 	23369 	46951 	32676 	0 	0 	0 	0 	0 	
mf_lat_pw_table:0 	0 	0 	0 	0 	0 	0 	0 	52 	669 	1 	0 	0 	0 	0 	0 	0 	0 	0 	0 	0 	0 	0 	0 	0 	0 	0 	0 	0 	0 	0 	0 	
maximum concurrent accesses to same row:
dram[0]:        30        30        18        18        28        20        36        36        18        16        30        34        38        30        24        18 
dram[1]:        30        30        14        20        28        24        32        34        20        20        28        32        32        30        28        22 
dram[2]:        28        29        30        22        24        24        38        32        20        20        34        30        32        30        22        22 
dram[3]:        27        27        18        14        26        24        32        32        20        14        34        30        32        30        14        16 
dram[4]:        28        31        22        24        20        24        34        32        24        14        30        26        30        30        20        20 
dram[5]:        28        30        26        20        20        24        32        32        22        16        30        26        30        30        24        20 
maximum service time to same row:
dram[0]:      3263      3256      4302      3952      3835      2428      2453      2497      6305      5272      2593      2612      3101      3308      6322      4591 
dram[1]:      2349      3309      4071      4146      3841      3229      2456      2502      6039      5093      2462      2620      3103      3176      6448      4622 
dram[2]:      2285      3440      4469      3928      2461      2928      2504      2556      4675      5027      2604      2600      3158      3041      4888      4793 
dram[3]:      2014      3463      3951      4020      4550      3211      2611      2550      4653      4969      2778      2615      3326      2935      4902      4828 
dram[4]:      3341      3254      4235      4329      3237      2585      2496      2490      5138      4460      2547      2635      3035      2875      4579      4990 
dram[5]:      3407      3229      4070      3977      2461      2451      2480      2459      5296      4600      2632      2546      3254      3241      4913      4920 
average row accesses per activate:
dram[0]:  1.559107  1.546758  1.561246  1.551582  1.577445  1.562759  1.589993  1.605051  1.560709  1.559114  1.568197  1.573049  1.583939  1.573590  1.562842  1.564979 
dram[1]:  1.535545  1.552055  1.533129  1.532609  1.542021  1.543071  1.567660  1.564444  1.541779  1.535571  1.540741  1.558583  1.552239  1.565515  1.546468  1.555933 
dram[2]:  1.569550  1.562759  1.551582  1.564494  1.561144  1.572816  1.583939  1.581749  1.543339  1.552239  1.571968  1.580111  1.580111  1.582843  1.570350  1.576844 
dram[3]:  1.538670  1.552055  1.525871  1.534694  1.537313  1.536065  1.561242  1.578475  1.536086  1.523302  1.534026  1.550661  1.551712  1.542819  1.543860  1.547514 
dram[4]:  1.566149  1.568166  1.554790  1.558549  1.557388  1.565217  1.601120  1.597765  1.543339  1.543339  1.569273  1.590546  1.585586  1.577387  1.570889  1.566587 
dram[5]:  1.531239  1.554717  1.523295  1.528973  1.533153  1.537106  1.569811  1.582296  1.542299  1.538669  1.553293  1.530435  1.557522  1.560709  1.553293  1.540222 
average row locality = 437509/280935 = 1.557332
number of total memory accesses made:
dram[0]:         0         0         0         0         0         0         0         0         0         0         0         0         0         0         0         0 
dram[1]:         0         0         0         0         0         0         0         0         0         0         0         0         0         0         0         0 
dram[2]:         0         0         0         0         0         0         0         0         0         0         0         0         0         0         0         0 
dram[3]:         0         0         0         0         0         0         0         0         0         0         0         0         0         0         0         0 
dram[4]:         0         0         0         0         0         0         0         0         0         0         0         0         0         0         0         0 
dram[5]:         0         0         0         0         0         0         0         0         0         0         0         0         0         0         0         0 
total accesses: 0
min_bank_accesses = 0!
min_chip_accesses = 0!
number of total read accesses:
dram[0]:      3251      3246      3232      3232      3242      3242      3264      3264      3264      3264      3264      3264      3264      3264      3264      3264 
dram[1]:      3250      3246      3232      3232      3242      3242      3264      3264      3264      3264      3264      3264      3264      3264      3264      3264 
dram[2]:      3250      3246      3232      3232      3242      3244      3264      3264      3264      3264      3264      3264      3264      3264      3264      3264 
dram[3]:      3250      3246      3232      3232      3242      3244      3264      3264      3264      3264      3264      3264      3264      3264      3264      3264 
dram[4]:      3248      3246      3232      3232      3242      3244      3264      3264      3264      3264      3264      3264      3264      3264      3264      3264 
dram[5]:      3248      3246      3232      3232      3242      3244      3264      3264      3264      3264      3264      3264      3264      3264      3264      3264 
total reads: 312509
bank skew: 3264/3232 = 1.01
chip skew: 52086/52084 = 1.00
number of total write accesses:
dram[0]:      1286      1286      1280      1280      1290      1290      1312      1312      1312      1312      1312      1312      1312      1312      1312      1312 
dram[1]:      1286      1286      1280      1280      1290      1290      1312      1312      1312      1312      1312      1312      1312      1312      1312      1312 
dram[2]:      1286      1286      1280      1280      1290      1292      1312      1312      1312      1312      1312      1312      1312      1312      1312      1312 
dram[3]:      1286      1286      1280      1280      1290      1292      1312      1312      1312      1312      1312      1312      1312      1312      1312      1312 
dram[4]:      1286      1286      1280      1280      1290      1292      1312      1312      1312      1312      1312      1312      1312      1312      1312      1312 
dram[5]:      1286      1286      1280      1280      1290      1292      1312      1312      1312      1312      1312      1312      1312      1312      1312      1312 
total reads: 125000
bank skew: 1312/1280 = 1.02
chip skew: 20834/20832 = 1.00
average mf latency per bank:
dram[0]:        535       529       543       540       547       539       548       555       542       535       530       533       544       545       556       555
dram[1]:        474       484       484       495       482       493       487       502       477       485       476       488       486       494       496       511
dram[2]:        561       556       575       569       574       572       580       574       572       564       571       567       574       577       593       589
dram[3]:        516       536       524       544       527       542       534       557       526       538       521       540       520       544       544       563
dram[4]:        500       503       502       508       509       506       513       519       503       505       503       504       511       515       520       526
dram[5]:        484       492       490       499       495       507       497       513       490       497       487       489       494       508       508       523
maximum mf latency per bank:
dram[0]:       1542      1619      1637      1611      1508      1483      1538      1646      1566      1570      1391      1557      1642      1693      1720      1425
dram[1]:       1374      1434      1593      1615      1722      1577      1543      1715      1747      1753      1413      1764      1577      2038      1632      1542
dram[2]:       1645      1438      2017      1572      1580      1903      1605      1545      1699      1623      1832      1583      1739      1728      1571      1818
dram[3]:       1594      1485      1556      1595      1555      1587      1427      1565      1599      1481      1451      1476      1533      1469      1512      1500
dram[4]:       1474      1840      1600      1833      1590      1745      1667      1782      1745      1616      1516      1932      1576      1701      1631      1598
dram[5]:       1380      1618      1440      1607      1458      1454      1478      1529      1388      1506      1360      1411      1607      1550      1490      1629

Number of Memory Banks Accessed per Memory Operation per Warp (from 0):
0	0	0	0	0	0	0	0	0	0	0	0	0	0	0	0	0	0	0	0	0	0	0	0	0	0	0	0	0	0	0	0	0	0	0	0	0	0	0	0	0	0	0	0	0	0	0	0	0	0	0	0	0	0	0	0	0	0	0	0	0	0	0	0	0	0	0	0	0	0	0	0	0	0	0	0	0	0	0	0	0	0	0	0	0	0	0	0	0	0	0	0	0	0	0	0	
Average # of Memory Banks Accessed per Memory Operation per Warp=-nan

position of mrq chosen
0	0	0	0	0	0	0	0	0	0	0	0	0	0	0	0	

average position of mrq chosen = -nan
Memory Partition 0: 
Cache L2_bank_000:
MSHR contents

Cache L2_bank_001:
MSHR contents

In Dram Latency Queue (total = 0): 
DRAM[0]: 16 bks, busW=4 BL=8 CL=12, tRRD=2 tCCD=6, tRCD=12 tRAS=28 tRP=12 tRC=40
n_cmd=478168 n_nop=239384 n_act=46483 n_pre=46467 n_req=72917 n_rd=104170 n_write=41664 bw_util=1.22
n_activity=465734 dram_eff=1.253
bk0: 6502a 228075i bk1: 6492a 223352i bk2: 6464a 214675i bk3: 6464a 210164i bk4: 6484a 204738i bk5: 6484a 199499i bk6: 6528a 190403i bk7: 6528a 181573i bk8: 6528a 219407i bk9: 6528a 215834i bk10: 6528a 215968i bk11: 6528a 208820i bk12: 6528a 202025i bk13: 6528a 194690i bk14: 6528a 187442i bk15: 6528a 174454i 
dram_util_bins: 0 0 0 0 0 0 0 0 0 0
dram_eff_bins: 0 0 0 0 0 0 0 0 0 0
mrqq: max=16 avg=14.6196
Memory Partition 1: 
Cache L2_bank_002:
MSHR contents

Cache L2_bank_003:
MSHR contents
MSHR: tag=0x80f20380, atomic=0 1 entries : 0x7f6d6131e240 :  mf: uid=8005420, sid04:w31, part=1, addr=0x80f20380, load , size=128, unknown  status = IN_PARTITION_DRAM (362247), 

In Dram Latency Queue (total = 0): 
DRAM[1]: 16 bks, busW=4 BL=8 CL=12, tRRD=2 tCCD=6, tRCD=12 tRAS=28 tRP=12 tRC=40
n_cmd=478168 n_nop=238140 n_act=47106 n_pre=47090 n_req=72916 n_rd=104168 n_write=41664 bw_util=1.22
n_activity=469078 dram_eff=1.244
bk0: 6500a 226338i bk1: 6492a 221855i bk2: 6464a 211657i bk3: 6464a 208379i bk4: 6484a 206582i bk5: 6484a 200013i bk6: 6528a 188179i bk7: 6528a 180323i bk8: 6528a 222165i bk9: 6528a 214791i bk10: 6528a 216255i bk11: 6528a 209504i bk12: 6528a 202024i bk13: 6528a 193647i bk14: 6528a 184537i bk15: 6528a 176336i 
dram_util_bins: 0 0 0 0 0 0 0 0 0 0
dram_eff_bins: 0 0 0 0 0 0 0 0 0 0
mrqq: max=16 avg=14.5547
Memory Partition 2: 
Cache L2_bank_004:
MSHR contents

Cache L2_bank_005:
MSHR contents

In Dram Latency Queue (total = 0): 
DRAM[2]: 16 bks, busW=4 BL=8 CL=12, tRRD=2 tCCD=6, tRCD=12 tRAS=28 tRP=12 tRC=40
n_cmd=478168 n_nop=239396 n_act=46474 n_pre=46458 n_req=72920 n_rd=104172 n_write=41668 bw_util=1.22
n_activity=465074 dram_eff=1.254
bk0: 6500a 227961i bk1: 6492a 220430i bk2: 6464a 213072i bk3: 6464a 206861i bk4: 6484a 204191i bk5: 6488a 199563i bk6: 6528a 189097i bk7: 6528a 177804i bk8: 6528a 218903i bk9: 6528a 216077i bk10: 6528a 214261i bk11: 6528a 206966i bk12: 6528a 202273i bk13: 6528a 190289i bk14: 6528a 184058i bk15: 6528a 171697i 
dram_util_bins: 0 0 0 0 0 0 0 0 0 0
dram_eff_bins: 0 0 0 0 0 0 0 0 0 0
mrqq: max=16 avg=14.9148
Memory Partition 3: 
Cache L2_bank_006:
MSHR contents

Cache L2_bank_007:
MSHR contents

In Dram Latency Queue (total = 0): 
DRAM[3]: 16 bks, busW=4 BL=8 CL=12, tRRD=2 tCCD=6, tRCD=12 tRAS=28 tRP=12 tRC=40
n_cmd=478168 n_nop=237846 n_act=47249 n_pre=47233 n_req=72920 n_rd=104172 n_write=41668 bw_util=1.22
n_activity=468756 dram_eff=1.244
bk0: 6500a 229046i bk1: 6492a 220862i bk2: 6464a 214590i bk3: 6464a 209950i bk4: 6484a 203585i bk5: 6488a 196530i bk6: 6528a 186739i bk7: 6528a 179750i bk8: 6528a 221902i bk9: 6528a 212827i bk10: 6528a 211749i bk11: 6528a 206014i bk12: 6528a 200448i bk13: 6528a 192629i bk14: 6528a 182291i bk15: 6528a 173749i 
dram_util_bins: 0 0 0 0 0 0 0 0 0 0
dram_eff_bins: 0 0 0 0 0 0 0 0 0 0
mrqq: max=16 avg=14.6898
Memory Partition 4: 
Cache L2_bank_008:
MSHR contents

Cache L2_bank_009:
MSHR contents

In Dram Latency Queue (total = 0): 
DRAM[4]: 16 bks, busW=4 BL=8 CL=12, tRRD=2 tCCD=6, tRCD=12 tRAS=28 tRP=12 tRC=40
n_cmd=478168 n_nop=239436 n_act=46456 n_pre=46440 n_req=72918 n_rd=104168 n_write=41668 bw_util=1.22
n_activity=465118 dram_eff=1.254
bk0: 6496a 229366i bk1: 6492a 221894i bk2: 6464a 216250i bk3: 6464a 206958i bk4: 6484a 208146i bk5: 6488a 198700i bk6: 6528a 189520i bk7: 6528a 178746i bk8: 6528a 223699i bk9: 6528a 215350i bk10: 6528a 216313i bk11: 6528a 208331i bk12: 6528a 200427i bk13: 6528a 194678i bk14: 6528a 188679i bk15: 6528a 176570i 
dram_util_bins: 0 0 0 0 0 0 0 0 0 0
dram_eff_bins: 0 0 0 0 0 0 0 0 0 0
mrqq: max=16 avg=14.6845
Memory Partition 5: 
Cache L2_bank_010:
MSHR contents

Cache L2_bank_011:
MSHR contents

In Dram Latency Queue (total = 0): 
DRAM[5]: 16 bks, busW=4 BL=8 CL=12, tRRD=2 tCCD=6, tRCD=12 tRAS=28 tRP=12 tRC=40
n_cmd=478168 n_nop=238014 n_act=47167 n_pre=47151 n_req=72918 n_rd=104168 n_write=41668 bw_util=1.22
n_activity=468906 dram_eff=1.244
bk0: 6496a 227675i bk1: 6492a 221263i bk2: 6464a 214403i bk3: 6464a 207610i bk4: 6484a 202137i bk5: 6488a 194718i bk6: 6528a 186206i bk7: 6528a 178810i bk8: 6528a 223152i bk9: 6528a 218997i bk10: 6528a 214451i bk11: 6528a 211393i bk12: 6528a 201241i bk13: 6528a 189909i bk14: 6528a 185061i bk15: 6528a 174155i 
dram_util_bins: 0 0 0 0 0 0 0 0 0 0
dram_eff_bins: 0 0 0 0 0 0 0 0 0 0
mrqq: max=16 avg=14.5639

========= L2 cache stats =========
L2_cache_bank[0]: Access = 26087, Miss = 26045, Miss_rate = 0.998, Pending_hits = 9, Reservation_fails = 22596
L2_cache_bank[1]: Access = 26040, Miss = 26040, Miss_rate = 1.000, Pending_hits = 0, Reservation_fails = 26337
L2_cache_bank[2]: Access = 26072, Miss = 26044, Miss_rate = 0.999, Pending_hits = 6, Reservation_fails = 21202
L2_cache_bank[3]: Access = 26040, Miss = 26040, Miss_rate = 1.000, Pending_hits = 0, Reservation_fails = 29468
L2_cache_bank[4]: Access = 26072, Miss = 26044, Miss_rate = 0.999, Pending_hits = 6, Reservation_fails = 24355
L2_cache_bank[5]: Access = 26042, Miss = 26042, Miss_rate = 1.000, Pending_hits = 0, Reservation_fails = 28660
L2_cache_bank[6]: Access = 26072, Miss = 26044, Miss_rate = 0.999, Pending_hits = 6, Reservation_fails = 30893
L2_cache_bank[7]: Access = 26042, Miss = 26042, Miss_rate = 1.000, Pending_hits = 0, Reservation_fails = 36186
L2_cache_bank[8]: Access = 26042, Miss = 26042, Miss_rate = 1.000, Pending_hits = 0, Reservation_fails = 20101
L2_cache_bank[9]: Access = 26042, Miss = 26042, Miss_rate = 1.000, Pending_hits = 0, Reservation_fails = 29525
L2_cache_bank[10]: Access = 26042, Miss = 26042, Miss_rate = 1.000, Pending_hits = 0, Reservation_fails = 17599
L2_cache_bank[11]: Access = 26042, Miss = 26042, Miss_rate = 1.000, Pending_hits = 0, Reservation_fails = 24607
L2_total_cache_accesses = 312635
L2_total_cache_misses = 312509
L2_total_cache_miss_rate = 0.9996
L2_total_cache_pending_hits = 27
L2_total_cache_reservation_fails = 311529
L2_total_cache_breakdown:
	L2_cache_stats_breakdown[GLOBAL_ACC_R][MISS] = 187500
	L2_cache_stats_breakdown[GLOBAL_ACC_R][RESERVATION_FAIL] = 184791
	L2_cache_stats_breakdown[CONST_ACC_R][HIT] = 11
	L2_cache_stats_breakdown[CONST_ACC_R][HIT_RESERVED] = 3
	L2_cache_stats_breakdown[CONST_ACC_R][MISS] = 1
	L2_cache_stats_breakdown[CONST_ACC_R][RESERVATION_FAIL] = 109
	L2_cache_stats_breakdown[GLOBAL_ACC_W][MISS] = 125000
	L2_cache_stats_breakdown[GLOBAL_ACC_W][RESERVATION_FAIL] = 125839
	L2_cache_stats_breakdown[INST_ACC_R][HIT] = 88
	L2_cache_stats_breakdown[INST_ACC_R][HIT_RESERVED] = 24
	L2_cache_stats_breakdown[INST_ACC_R][MISS] = 8
	L2_cache_stats_breakdown[INST_ACC_R][RESERVATION_FAIL] = 790
L2_cache_data_port_util = 0.000
L2_cache_fill_port_util = 0.288

icnt_total_pkts_mem_to_simt=1063145
icnt_total_pkts_simt_to_mem=812635
LD_mem_lat_dist  0 0 0 0 0 0 0 0 0 0 0 0 0 0 0 0 0 0 0 0 0 0 0 0 0 0 0
ST_mem_lat_dist  0 0 0 0 0 0 0 0 0 0 0 0 0 0 0 0 0 0 0 0 0 0 0 0 0 0 0
----------------------------Interconnect-DETAILS--------------------------------
Class 0:
Packet latency average = 53.7053
	minimum = 6
	maximum = 730
Network latency average = 36.016
	minimum = 6
	maximum = 696
Slowest packet = 4195
Flit latency average = 26.624
	minimum = 6
	maximum = 692
Slowest flit = 644524
Fragmentation average = 0.595314
	minimum = 0
	maximum = 438
Injected packet rate average = 0.0639288
	minimum = 0.0557324 (at node 10)
	maximum = 0.072014 (at node 15)
Accepted packet rate average = 0.0639288
	minimum = 0.0557324 (at node 10)
	maximum = 0.072014 (at node 15)
Injected flit rate average = 0.191783
	minimum = 0.144864 (at node 10)
	maximum = 0.244972 (at node 15)
Accepted flit rate average= 0.191783
	minimum = 0.186899 (at node 16)
	maximum = 0.201726 (at node 0)
Injected packet length average = 2.99995
Accepted packet length average = 2.99995
Total in-flight flits = 0 (0 measured)
====== Overall Traffic Statistics ======
====== Traffic class 0 ======
Packet latency average = 53.7053 (1 samples)
	minimum = 6 (1 samples)
	maximum = 730 (1 samples)
Network latency average = 36.016 (1 samples)
	minimum = 6 (1 samples)
	maximum = 696 (1 samples)
Flit latency average = 26.624 (1 samples)
	minimum = 6 (1 samples)
	maximum = 692 (1 samples)
Fragmentation average = 0.595314 (1 samples)
	minimum = 0 (1 samples)
	maximum = 438 (1 samples)
Injected packet rate average = 0.0639288 (1 samples)
	minimum = 0.0557324 (1 samples)
	maximum = 0.072014 (1 samples)
Accepted packet rate average = 0.0639288 (1 samples)
	minimum = 0.0557324 (1 samples)
	maximum = 0.072014 (1 samples)
Injected flit rate average = 0.191783 (1 samples)
	minimum = 0.144864 (1 samples)
	maximum = 0.244972 (1 samples)
Accepted flit rate average = 0.191783 (1 samples)
	minimum = 0.186899 (1 samples)
	maximum = 0.201726 (1 samples)
Injected packet size average = 2.99995 (1 samples)
Accepted packet size average = 2.99995 (1 samples)
Hops average = 1 (1 samples)
----------------------------END-of-Interconnect-DETAILS-------------------------


gpgpu_simulation_time = 0 days, 0 hrs, 6 min, 48 sec (408 sec)
gpgpu_simulation_rate = 479857 (inst/sec)
gpgpu_simulation_rate = 887 (cycle/sec)
GPGPU-Sim: synchronize waiting for inactive GPU simulation
GPGPU-Sim API: Stream Manager State
GPGPU-Sim: detected inactive GPU simulation thread
Options count             : 4000000     
BlackScholesGPU() time    : 405902.187500 msec
Effective memory bandwidth: 0.000099 GB/s
Gigaoptions per second    : 0.000010     
Reading back GPU results...
Checking the results...
...running CPU calculations.
Comparing the results...
L1 norm: 1.729535E-07
Max absolute error: 1.192093E-05
TEST PASSED
Shutting down...
...releasing GPU memory.
...releasing CPU memory.
Shutdown done.
GPGPU-Sim: exit_simulation called
GPGPU-Sim: simulation thread signaled exit

Press ENTER to exit...
