

        *** GPGPU-Sim Simulator Version 3.2.2  [build 0] ***


GPGPU-Sim PTX: simulation mode 0 (can change with PTX_SIM_MODE_FUNC environment variable:
               1=functional simulation only, 0=detailed performance simulator)
GPGPU-Sim: Configuration options:

-network_mode                           1 # Interconnection network mode
-inter_config_file   config_fermi_islip.icnt # Interconnection network config file
-gpgpu_ptx_use_cuobjdump                    1 # Use cuobjdump to extract ptx and sass from binaries
-gpgpu_experimental_lib_support                    0 # Try to extract code from cuda libraries [Broken because of unknown cudaGetExportTable]
-gpgpu_ptx_convert_to_ptxplus                    0 # Convert SASS (native ISA) to ptxplus and run ptxplus
-gpgpu_ptx_force_max_capability                   20 # Force maximum compute capability
-gpgpu_ptx_inst_debug_to_file                    0 # Dump executed instructions' debug information to file
-gpgpu_ptx_inst_debug_file       inst_debug.txt # Executed instructions' debug output file
-gpgpu_ptx_inst_debug_thread_uid                    1 # Thread UID for executed instructions' debug output
-gpgpu_simd_model                       1 # 1 = post-dominator
-gpgpu_shader_core_pipeline              1536:32 # shader core pipeline config, i.e., {<nthread>:<warpsize>}
-gpgpu_tex_cache:l1  4:128:24,L:R:m:N:L,F:128:4,128:2 # per-shader L1 texture cache  (READ-ONLY) config  {<nsets>:<bsize>:<assoc>,<rep>:<wr>:<alloc>:<wr_alloc>,<mshr>:<N>:<merge>,<mq>:<rf>}
-gpgpu_const_cache:l1 64:64:2,L:R:f:N:L,A:2:32,4 # per-shader L1 constant memory cache  (READ-ONLY) config  {<nsets>:<bsize>:<assoc>,<rep>:<wr>:<alloc>:<wr_alloc>,<mshr>:<N>:<merge>,<mq>} 
-gpgpu_cache:il1     4:128:4,L:R:f:N:L,A:2:32,4 # shader L1 instruction cache config  {<nsets>:<bsize>:<assoc>,<rep>:<wr>:<alloc>:<wr_alloc>,<mshr>:<N>:<merge>,<mq>} 
-gpgpu_cache:dl1     32:128:4,L:L:m:N:H,A:32:8,8 # per-shader L1 data cache config  {<nsets>:<bsize>:<assoc>,<rep>:<wr>:<alloc>:<wr_alloc>,<mshr>:<N>:<merge>,<mq> | none}
-gpgpu_cache:dl1PrefL1                 none # per-shader L1 data cache config  {<nsets>:<bsize>:<assoc>,<rep>:<wr>:<alloc>:<wr_alloc>,<mshr>:<N>:<merge>,<mq> | none}
-gpgpu_cache:dl1PreShared                 none # per-shader L1 data cache config  {<nsets>:<bsize>:<assoc>,<rep>:<wr>:<alloc>:<wr_alloc>,<mshr>:<N>:<merge>,<mq> | none}
-gmem_skip_L1D                          0 # global memory access skip L1D cache (implements -Xptxas -dlcm=cg, default=no skip)
-gpgpu_perfect_mem                      0 # enable perfect memory mode (no cache miss)
-n_regfile_gating_group                    4 # group of lanes that should be read/written together)
-gpgpu_clock_gated_reg_file                    0 # enable clock gated reg file for power calculations
-gpgpu_clock_gated_lanes                    0 # enable clock gated lanes for power calculations
-gpgpu_shader_registers                32768 # Number of registers per shader core. Limits number of concurrent CTAs. (default 8192)
-gpgpu_shader_cta                       8 # Maximum number of concurrent CTAs in shader (default 8)
-gpgpu_num_cta_barriers                   16 # Maximum number of named barriers per CTA (default 16)
-gpgpu_n_clusters                      15 # number of processing clusters
-gpgpu_n_cores_per_cluster                    1 # number of simd cores per cluster
-gpgpu_n_cluster_ejection_buffer_size                    8 # number of packets in ejection buffer
-gpgpu_n_ldst_response_buffer_size                    2 # number of response packets in ld/st unit ejection buffer
-gpgpu_shmem_size                   16384 # Size of shared memory per shader core (default 16kB)
-gpgpu_shmem_size                   49152 # Size of shared memory per shader core (default 16kB)
-gpgpu_shmem_size_PrefL1                16384 # Size of shared memory per shader core (default 16kB)
-gpgpu_shmem_size_PrefShared                16384 # Size of shared memory per shader core (default 16kB)
-gpgpu_shmem_num_banks                   32 # Number of banks in the shared memory in each shader core (default 16)
-gpgpu_shmem_limited_broadcast                    0 # Limit shared memory to do one broadcast per cycle (default on)
-gpgpu_shmem_warp_parts                    1 # Number of portions a warp is divided into for shared memory bank conflict check 
-gpgpu_warpdistro_shader                   -1 # Specify which shader core to collect the warp size distribution from
-gpgpu_warp_issue_shader                    0 # Specify which shader core to collect the warp issue distribution from
-gpgpu_local_mem_map                    1 # Mapping from local memory space address to simulated GPU physical address space (default = enabled)
-gpgpu_num_reg_banks                   16 # Number of register banks (default = 8)
-gpgpu_reg_bank_use_warp_id                    0 # Use warp ID in mapping registers to banks (default = off)
-gpgpu_operand_collector_num_units_sp                    6 # number of collector units (default = 4)
-gpgpu_operand_collector_num_units_sfu                    8 # number of collector units (default = 4)
-gpgpu_operand_collector_num_units_mem                    2 # number of collector units (default = 2)
-gpgpu_operand_collector_num_units_gen                    0 # number of collector units (default = 0)
-gpgpu_operand_collector_num_in_ports_sp                    2 # number of collector unit in ports (default = 1)
-gpgpu_operand_collector_num_in_ports_sfu                    1 # number of collector unit in ports (default = 1)
-gpgpu_operand_collector_num_in_ports_mem                    1 # number of collector unit in ports (default = 1)
-gpgpu_operand_collector_num_in_ports_gen                    0 # number of collector unit in ports (default = 0)
-gpgpu_operand_collector_num_out_ports_sp                    2 # number of collector unit in ports (default = 1)
-gpgpu_operand_collector_num_out_ports_sfu                    1 # number of collector unit in ports (default = 1)
-gpgpu_operand_collector_num_out_ports_mem                    1 # number of collector unit in ports (default = 1)
-gpgpu_operand_collector_num_out_ports_gen                    0 # number of collector unit in ports (default = 0)
-gpgpu_coalesce_arch                   13 # Coalescing arch (default = 13, anything else is off for now)
-gpgpu_num_sched_per_core                    2 # Number of warp schedulers per core
-gpgpu_max_insn_issue_per_warp                    1 # Max number of instructions that can be issued per warp in one cycle by scheduler
-gpgpu_simt_core_sim_order                    1 # Select the simulation order of cores in a cluster (0=Fix, 1=Round-Robin)
-gpgpu_pipeline_widths        2,1,1,2,1,1,2 # Pipeline widths ID_OC_SP,ID_OC_SFU,ID_OC_MEM,OC_EX_SP,OC_EX_SFU,OC_EX_MEM,EX_WB
-gpgpu_num_sp_units                     2 # Number of SP units (default=1)
-gpgpu_num_sfu_units                    1 # Number of SF units (default=1)
-gpgpu_num_mem_units                    1 # Number if ldst units (default=1) WARNING: not hooked up to anything
-gpgpu_scheduler                      gto # Scheduler configuration: < lrr | gto | two_level_active > If two_level_active:<num_active_warps>:<inner_prioritization>:<outer_prioritization>For complete list of prioritization values see shader.h enum scheduler_prioritization_typeDefault: gto
-gpgpu_dram_scheduler                    1 # 0 = fifo, 1 = FR-FCFS (defaul)
-gpgpu_dram_partition_queues              8:8:8:8 # i2$:$2d:d2$:$2i
-l2_ideal                               0 # Use a ideal L2 cache that always hit
-gpgpu_cache:dl2     64:128:8,L:B:m:W:L,A:32:4,4:0,32 # unified banked L2 data cache config  {<nsets>:<bsize>:<assoc>,<rep>:<wr>:<alloc>:<wr_alloc>,<mshr>:<N>:<merge>,<mq>}
-gpgpu_cache:dl2_texture_only                    0 # L2 cache used for texture only
-gpgpu_n_mem                            6 # number of memory modules (e.g. memory controllers) in gpu
-gpgpu_n_sub_partition_per_mchannel                    2 # number of memory subpartition in each memory module
-gpgpu_n_mem_per_ctrlr                    2 # number of memory chips per memory controller
-gpgpu_memlatency_stat                   14 # track and display latency statistics 0x2 enables MC, 0x4 enables queue logs
-gpgpu_frfcfs_dram_sched_queue_size                   16 # 0 = unlimited (default); # entries per chip
-gpgpu_dram_return_queue_size                  116 # 0 = unlimited (default); # entries per chip
-gpgpu_dram_buswidth                    4 # default = 4 bytes (8 bytes per cycle at DDR)
-gpgpu_dram_burst_length                   16 # Burst length of each DRAM request (default = 4 data bus cycle)
-dram_data_command_freq_ratio                    4 # Frequency ratio between DRAM data bus and command bus (default = 2 times, i.e. DDR)
-gpgpu_dram_timing_opt nbk=16:CCD=2:RRD=6:RCD=12:RAS=28:RP=12:RC=40: CL=12:WL=4:CDLR=5:WR=12:nbkgrp=4:CCDL=3:RTPL=2 # DRAM timing parameters = {nbk:tCCD:tRRD:tRCD:tRAS:tRP:tRC:CL:WL:tCDLR:tWR:nbkgrp:tCCDL:tRTPL}
-rop_latency                          120 # ROP queue latency (default 85)
-dram_latency                         100 # DRAM latency (default 30)
-gpgpu_mem_addr_mapping dramid@8;00000000.00000000.00000000.00000000.0000RRRR.RRRRRRRR.BBBCCCCB.CCSSSSSS # mapping memory address to dram model {dramid@<start bit>;<memory address map>}
-gpgpu_mem_addr_test                    0 # run sweep test to check address mapping for aliased address
-gpgpu_mem_address_mask                    1 # 0 = old addressing mask, 1 = new addressing mask, 2 = new add. mask + flipped bank sel and chip sel bits
-gpuwattch_xml_file  gpuwattch_gtx480.xml # GPUWattch XML file
-power_simulation_enabled                    0 # Turn on power simulator (1=On, 0=Off)
-power_per_cycle_dump                    0 # Dump detailed power output each cycle
-power_trace_enabled                    0 # produce a file for the power trace (1=On, 0=Off)
-power_trace_zlevel                     6 # Compression level of the power trace output log (0=no comp, 9=highest)
-steady_power_levels_enabled                    0 # produce a file for the steady power levels (1=On, 0=Off)
-steady_state_definition                  8:4 # allowed deviation:number of samples
-gpgpu_max_cycle                        0 # terminates gpu simulation early (0 = no limit)
-gpgpu_max_insn                         0 # terminates gpu simulation early (0 = no limit)
-gpgpu_max_cta                          0 # terminates gpu simulation early (0 = no limit)
-gpgpu_runtime_stat                   500 # display runtime statistics such as dram utilization {<freq>:<flag>}
-liveness_message_freq                    1 # Minimum number of seconds between simulation liveness messages (0 = always print)
-gpgpu_flush_l1_cache                    0 # Flush L1 cache at the end of each kernel call
-gpgpu_flush_l2_cache                    0 # Flush L2 cache at the end of each kernel call
-gpgpu_deadlock_detect                    1 # Stop the simulation at deadlock (1=on (default), 0=off)
-gpgpu_ptx_instruction_classification                    0 # if enabled will classify ptx instruction types per kernel (Max 255 kernels now)
-gpgpu_ptx_sim_mode                     0 # Select between Performance (default) or Functional simulation (1)
-gpgpu_clock_domains 700.0:700.0:700.0:924.0 # Clock Domain Frequencies in MhZ {<Core Clock>:<ICNT Clock>:<L2 Clock>:<DRAM Clock>}
-gpgpu_max_concurrent_kernel                    8 # maximum kernels that can run concurrently on GPU
-gpgpu_cflog_interval                    0 # Interval between each snapshot in control flow logger
-visualizer_enabled                     0 # Turn on visualizer output (1=On, 0=Off)
-visualizer_outputfile                 NULL # Specifies the output log file for visualizer
-visualizer_zlevel                      6 # Compression level of the visualizer output log (0=no comp, 9=highest)
-trace_enabled                          0 # Turn on traces
-trace_components                    none # comma seperated list of traces to enable. Complete list found in trace_streams.tup. Default none
-trace_sampling_core                    0 # The core which is printed using CORE_DPRINTF. Default 0
-trace_sampling_memory_partition                   -1 # The memory partition which is printed using MEMPART_DPRINTF. Default -1 (i.e. all)
-enable_ptx_file_line_stats                    1 # Turn on PTX source line statistic profiling. (1 = On)
-ptx_line_stats_filename gpgpu_inst_stats.txt # Output file for PTX source line statistics.
-save_embedded_ptx                      0 # saves ptx files embedded in binary as <n>.ptx
-keep                                   0 # keep intermediate files created by GPGPU-Sim when interfacing with external programs
-gpgpu_ptx_save_converted_ptxplus                    0 # Saved converted ptxplus to a file
-ptx_opcode_latency_int         4,13,4,5,145 # Opcode latencies for integers <ADD,MAX,MUL,MAD,DIV>Default 1,1,19,25,145
-ptx_opcode_latency_fp          4,13,4,5,39 # Opcode latencies for single precision floating points <ADD,MAX,MUL,MAD,DIV>Default 1,1,1,1,30
-ptx_opcode_latency_dp         8,19,8,8,330 # Opcode latencies for double precision floating points <ADD,MAX,MUL,MAD,DIV>Default 8,8,8,8,335
-ptx_opcode_initiation_int            1,2,2,1,8 # Opcode initiation intervals for integers <ADD,MAX,MUL,MAD,DIV>Default 1,1,4,4,32
-ptx_opcode_initiation_fp            1,2,1,1,4 # Opcode initiation intervals for single precision floating points <ADD,MAX,MUL,MAD,DIV>Default 1,1,1,1,5
-ptx_opcode_initiation_dp         8,16,8,8,130 # Opcode initiation intervals for double precision floating points <ADD,MAX,MUL,MAD,DIV>Default 8,8,8,8,130
DRAM Timing Options:
nbk                                    16 # number of banks
CCD                                     2 # column to column delay
RRD                                     6 # minimal delay between activation of rows in different banks
RCD                                    12 # row to column delay
RAS                                    28 # time needed to activate row
RP                                     12 # time needed to precharge (deactivate) row
RC                                     40 # row cycle time
CDLR                                    5 # switching from write to read (changes tWTR)
WR                                     12 # last data-in to row precharge
CL                                     12 # CAS latency
WL                                      4 # Write latency
nbkgrp                                  4 # number of bank groups
CCDL                                    3 # column to column delay between accesses to different bank groups
RTPL                                    2 # read to precharge delay between accesses to different bank groups
Total number of memory sub partition = 12
addr_dec_mask[CHIP]  = 0000000000000000 	high:64 low:0
addr_dec_mask[BK]    = 000000000000e100 	high:16 low:8
addr_dec_mask[ROW]   = 000000000fff0000 	high:28 low:16
addr_dec_mask[COL]   = 0000000000001eff 	high:13 low:0
addr_dec_mask[BURST] = 000000000000003f 	high:6 low:0
sub_partition_id_mask = 0000000000000100
GPGPU-Sim uArch: clock freqs: 700000000.000000:700000000.000000:700000000.000000:924000000.000000
GPGPU-Sim uArch: clock periods: 0.00000000142857142857:0.00000000142857142857:0.00000000142857142857:0.00000000108225108225
*** Initializing Memory Statistics ***
GPGPU-Sim uArch: interconnect node map (shaderID+MemID to icntID)
GPGPU-Sim uArch: Memory nodes ID start from index: 15
GPGPU-Sim uArch:    0   1   2   3   4
GPGPU-Sim uArch:    5   6   7   8   9
GPGPU-Sim uArch:   10  11  12  13  14
GPGPU-Sim uArch:   15  16  17  18  19
GPGPU-Sim uArch:   20  21  22  23  24
GPGPU-Sim uArch:   25  26
GPGPU-Sim uArch: interconnect node reverse map (icntID to shaderID+MemID)
GPGPU-Sim uArch: Memory nodes start from ID: 15
GPGPU-Sim uArch:    0   1   2   3   4
GPGPU-Sim uArch:    5   6   7   8   9
GPGPU-Sim uArch:   10  11  12  13  14
GPGPU-Sim uArch:   15  16  17  18  19
GPGPU-Sim uArch:   20  21  22  23  24
GPGPU-Sim uArch:   25  26
e389dacb331e7fcddf4abf4a164344f1  /sciclone/data20/adwait/applications/benchmarks/CUDA/BlackScholes/gpgpu_ptx_sim__BlackScholes
GPGPU-Sim uArch: performance model initialization complete.
GPGPU-Sim PTX: __cudaRegisterFatBinary, fat_cubin_handle = 1, filename=BlackScholes.cu
self exe links to: /sciclone/data20/adwait/applications/benchmarks/CUDA/BlackScholes/gpgpu_ptx_sim__BlackScholes
Running md5sum using "md5sum /sciclone/data20/adwait/applications/benchmarks/CUDA/BlackScholes/gpgpu_ptx_sim__BlackScholes "
Parsing file _cuobjdump_complete_output_zWaP67
######### cuobjdump parser ########
## Adding new section ELF
Adding arch: sm_20
Adding identifier: BlackScholes.cu
## Adding new section PTX
Adding ptx filename: _cuobjdump_1.ptx
Adding arch: sm_20
Adding identifier: BlackScholes.cu
Done parsing!!!
GPGPU-Sim PTX: __cudaRegisterFunction _Z15BlackScholesGPUPfS_S_S_S_ffi : hostFun 0x0x405752, fat_cubin_handle = 1
GPGPU-Sim PTX: instruction assembly for function '_Z15BlackScholesGPUPfS_S_S_S_ffi'...   done.
GPGPU-Sim PTX: finding reconvergence points for '_Z15BlackScholesGPUPfS_S_S_S_ffi'...
GPGPU-Sim PTX: Finding dominators for '_Z15BlackScholesGPUPfS_S_S_S_ffi'...
GPGPU-Sim PTX: Finding immediate dominators for '_Z15BlackScholesGPUPfS_S_S_S_ffi'...
GPGPU-Sim PTX: Finding postdominators for '_Z15BlackScholesGPUPfS_S_S_S_ffi'...
GPGPU-Sim PTX: Finding immediate postdominators for '_Z15BlackScholesGPUPfS_S_S_S_ffi'...
GPGPU-Sim PTX: pre-decoding instructions for '_Z15BlackScholesGPUPfS_S_S_S_ffi'...
GPGPU-Sim PTX: reconvergence points for _Z15BlackScholesGPUPfS_S_S_S_ffi...
GPGPU-Sim PTX:  1 (potential) branch divergence @  PC=0x040 (_1.ptx:76) @%p1 bra $Lt_0_2818;
GPGPU-Sim PTX:    immediate post dominator      @  PC=0x3f8 (_1.ptx:200) exit;
GPGPU-Sim PTX:  2 (potential) branch divergence @  PC=0x3f0 (_1.ptx:197) @%p4 bra $Lt_0_3330;
GPGPU-Sim PTX:    immediate post dominator      @  PC=0x3f8 (_1.ptx:200) exit;
GPGPU-Sim PTX: ... end of reconvergence points for _Z15BlackScholesGPUPfS_S_S_S_ffi
GPGPU-Sim PTX: ... done pre-decoding instructions for '_Z15BlackScholesGPUPfS_S_S_S_ffi'.
GPGPU-Sim PTX: finished parsing EMBEDDED .ptx file _1.ptx
Adding _cuobjdump_1.ptx with cubin handle 1
GPGPU-Sim PTX: extracting embedded .ptx to temporary file "_ptx_k9D121"
Running: cat _ptx_k9D121 | sed 's/.version 1.5/.version 1.4/' | sed 's/, texmode_independent//' | sed 's/\(\.extern \.const\[1\] .b8 \w\+\)\[\]/\1\[1\]/' | sed 's/const\[.\]/const\[0\]/g' > _ptx2_JoF6tW
GPGPU-Sim PTX: generating ptxinfo using "$CUDA_INSTALL_PATH/bin/ptxas --gpu-name=sm_20 -v _ptx2_JoF6tW --output-file  /dev/null 2> _ptx_k9D121info"
GPGPU-Sim PTX: Kernel '_Z15BlackScholesGPUPfS_S_S_S_ffi' : regs=31, lmem=0, smem=0, cmem=128
GPGPU-Sim PTX: removing ptxinfo using "rm -f _ptx_k9D121 _ptx2_JoF6tW _ptx_k9D121info"
GPGPU-Sim PTX: loading globals with explicit initializers... 
GPGPU-Sim PTX: finished loading globals (0 bytes total).
GPGPU-Sim PTX: loading constants with explicit initializers...  done.
Initializing data...
...allocating CPU memory for options.
...allocating GPU memory for options.
...generating input data in CPU mem.
...copying input data to GPU mem.
Data init done.
Executing Black-Scholes GPU kernel (1 iterations)...
GPGPU-Sim: synchronize waiting for inactive GPU simulation
GPGPU-Sim API: Stream Manager State
GPGPU-Sim: detected inactive GPU simulation thread

GPGPU-Sim PTX: cudaLaunch for 0x0x405752 (mode=performance simulation) on stream 0
GPGPU-Sim PTX: pushing kernel '_Z15BlackScholesGPUPfS_S_S_S_ffi' to stream 0, gridDim= (480,1,1) blockDim = (128,1,1) 
kernel '_Z15BlackScholesGPUPfS_S_S_S_ffi' transfer to GPU hardware scheduler
GPGPU-Sim uArch: Shader 1 bind to kernel 1 '_Z15BlackScholesGPUPfS_S_S_S_ffi'
GPGPU-Sim uArch: CTA/core = 8, limited by: regs cta_limit
GPGPU-Sim uArch: core:  1, cta: 0 initialized @(1,0)
GPGPU-Sim uArch: Shader 2 bind to kernel 1 '_Z15BlackScholesGPUPfS_S_S_S_ffi'
GPGPU-Sim uArch: core:  2, cta: 0 initialized @(1,0)
GPGPU-Sim uArch: Shader 3 bind to kernel 1 '_Z15BlackScholesGPUPfS_S_S_S_ffi'
GPGPU-Sim uArch: core:  3, cta: 0 initialized @(1,0)
GPGPU-Sim uArch: Shader 4 bind to kernel 1 '_Z15BlackScholesGPUPfS_S_S_S_ffi'
GPGPU-Sim uArch: core:  4, cta: 0 initialized @(1,0)
GPGPU-Sim uArch: Shader 5 bind to kernel 1 '_Z15BlackScholesGPUPfS_S_S_S_ffi'
GPGPU-Sim uArch: core:  5, cta: 0 initialized @(1,0)
GPGPU-Sim uArch: Shader 6 bind to kernel 1 '_Z15BlackScholesGPUPfS_S_S_S_ffi'
GPGPU-Sim uArch: core:  6, cta: 0 initialized @(1,0)
GPGPU-Sim uArch: Shader 7 bind to kernel 1 '_Z15BlackScholesGPUPfS_S_S_S_ffi'
GPGPU-Sim uArch: core:  7, cta: 0 initialized @(1,0)
GPGPU-Sim uArch: Shader 8 bind to kernel 1 '_Z15BlackScholesGPUPfS_S_S_S_ffi'
GPGPU-Sim uArch: core:  8, cta: 0 initialized @(1,0)
GPGPU-Sim uArch: Shader 9 bind to kernel 1 '_Z15BlackScholesGPUPfS_S_S_S_ffi'
GPGPU-Sim uArch: core:  9, cta: 0 initialized @(1,0)
GPGPU-Sim uArch: Shader 10 bind to kernel 1 '_Z15BlackScholesGPUPfS_S_S_S_ffi'
GPGPU-Sim uArch: core: 10, cta: 0 initialized @(1,0)
GPGPU-Sim uArch: Shader 11 bind to kernel 1 '_Z15BlackScholesGPUPfS_S_S_S_ffi'
GPGPU-Sim uArch: core: 11, cta: 0 initialized @(1,0)
GPGPU-Sim uArch: Shader 12 bind to kernel 1 '_Z15BlackScholesGPUPfS_S_S_S_ffi'
GPGPU-Sim uArch: core: 12, cta: 0 initialized @(1,0)
GPGPU-Sim uArch: Shader 13 bind to kernel 1 '_Z15BlackScholesGPUPfS_S_S_S_ffi'
GPGPU-Sim uArch: core: 13, cta: 0 initialized @(1,0)
GPGPU-Sim uArch: Shader 14 bind to kernel 1 '_Z15BlackScholesGPUPfS_S_S_S_ffi'
GPGPU-Sim uArch: core: 14, cta: 0 initialized @(1,0)
GPGPU-Sim uArch: Shader 0 bind to kernel 1 '_Z15BlackScholesGPUPfS_S_S_S_ffi'
GPGPU-Sim uArch: core:  0, cta: 0 initialized @(1,0)
GPGPU-Sim uArch: core:  1, cta: 1 initialized @(2,0)
GPGPU-Sim uArch: core:  2, cta: 1 initialized @(2,0)
GPGPU-Sim uArch: core:  3, cta: 1 initialized @(2,0)
GPGPU-Sim uArch: core:  4, cta: 1 initialized @(2,0)
GPGPU-Sim uArch: core:  5, cta: 1 initialized @(2,0)
GPGPU-Sim uArch: core:  6, cta: 1 initialized @(2,0)
GPGPU-Sim uArch: core:  7, cta: 1 initialized @(2,0)
GPGPU-Sim uArch: core:  8, cta: 1 initialized @(2,0)
GPGPU-Sim uArch: core:  9, cta: 1 initialized @(2,0)
GPGPU-Sim uArch: core: 10, cta: 1 initialized @(2,0)
GPGPU-Sim uArch: core: 11, cta: 1 initialized @(2,0)
GPGPU-Sim uArch: core: 12, cta: 1 initialized @(2,0)
GPGPU-Sim uArch: core: 13, cta: 1 initialized @(2,0)
GPGPU-Sim uArch: core: 14, cta: 1 initialized @(2,0)
GPGPU-Sim uArch: core:  0, cta: 1 initialized @(2,0)
GPGPU-Sim uArch: core:  1, cta: 2 initialized @(3,0)
GPGPU-Sim uArch: core:  2, cta: 2 initialized @(3,0)
GPGPU-Sim uArch: core:  3, cta: 2 initialized @(3,0)
GPGPU-Sim uArch: core:  4, cta: 2 initialized @(3,0)
GPGPU-Sim uArch: core:  5, cta: 2 initialized @(3,0)
GPGPU-Sim uArch: core:  6, cta: 2 initialized @(3,0)
GPGPU-Sim uArch: core:  7, cta: 2 initialized @(3,0)
GPGPU-Sim uArch: core:  8, cta: 2 initialized @(3,0)
GPGPU-Sim uArch: core:  9, cta: 2 initialized @(3,0)
GPGPU-Sim uArch: core: 10, cta: 2 initialized @(3,0)
GPGPU-Sim uArch: core: 11, cta: 2 initialized @(3,0)
GPGPU-Sim uArch: core: 12, cta: 2 initialized @(3,0)
GPGPU-Sim uArch: core: 13, cta: 2 initialized @(3,0)
GPGPU-Sim uArch: core: 14, cta: 2 initialized @(3,0)
GPGPU-Sim uArch: core:  0, cta: 2 initialized @(3,0)
GPGPU-Sim uArch: core:  1, cta: 3 initialized @(4,0)
GPGPU-Sim uArch: core:  2, cta: 3 initialized @(4,0)
GPGPU-Sim uArch: core:  3, cta: 3 initialized @(4,0)
GPGPU-Sim uArch: core:  4, cta: 3 initialized @(4,0)
GPGPU-Sim uArch: core:  5, cta: 3 initialized @(4,0)
GPGPU-Sim uArch: core:  6, cta: 3 initialized @(4,0)
GPGPU-Sim uArch: core:  7, cta: 3 initialized @(4,0)
GPGPU-Sim uArch: core:  8, cta: 3 initialized @(4,0)
GPGPU-Sim uArch: core:  9, cta: 3 initialized @(4,0)
GPGPU-Sim uArch: core: 10, cta: 3 initialized @(4,0)
GPGPU-Sim uArch: core: 11, cta: 3 initialized @(4,0)
GPGPU-Sim uArch: core: 12, cta: 3 initialized @(4,0)
GPGPU-Sim uArch: core: 13, cta: 3 initialized @(4,0)
GPGPU-Sim uArch: core: 14, cta: 3 initialized @(4,0)
GPGPU-Sim uArch: core:  0, cta: 3 initialized @(4,0)
GPGPU-Sim uArch: core:  1, cta: 4 initialized @(5,0)
GPGPU-Sim uArch: core:  2, cta: 4 initialized @(5,0)
GPGPU-Sim uArch: core:  3, cta: 4 initialized @(5,0)
GPGPU-Sim uArch: core:  4, cta: 4 initialized @(5,0)
GPGPU-Sim uArch: core:  5, cta: 4 initialized @(5,0)
GPGPU-Sim uArch: core:  6, cta: 4 initialized @(5,0)
GPGPU-Sim uArch: core:  7, cta: 4 initialized @(5,0)
GPGPU-Sim uArch: core:  8, cta: 4 initialized @(5,0)
GPGPU-Sim uArch: core:  9, cta: 4 initialized @(5,0)
GPGPU-Sim uArch: core: 10, cta: 4 initialized @(5,0)
GPGPU-Sim uArch: core: 11, cta: 4 initialized @(5,0)
GPGPU-Sim uArch: core: 12, cta: 4 initialized @(5,0)
GPGPU-Sim uArch: core: 13, cta: 4 initialized @(5,0)
GPGPU-Sim uArch: core: 14, cta: 4 initialized @(5,0)
GPGPU-Sim uArch: core:  0, cta: 4 initialized @(5,0)
GPGPU-Sim uArch: core:  1, cta: 5 initialized @(6,0)
GPGPU-Sim uArch: core:  2, cta: 5 initialized @(6,0)
GPGPU-Sim uArch: core:  3, cta: 5 initialized @(6,0)
GPGPU-Sim uArch: core:  4, cta: 5 initialized @(6,0)
GPGPU-Sim uArch: core:  5, cta: 5 initialized @(6,0)
GPGPU-Sim uArch: core:  6, cta: 5 initialized @(6,0)
GPGPU-Sim uArch: core:  7, cta: 5 initialized @(6,0)
GPGPU-Sim uArch: core:  8, cta: 5 initialized @(6,0)
GPGPU-Sim uArch: core:  9, cta: 5 initialized @(6,0)
GPGPU-Sim uArch: core: 10, cta: 5 initialized @(6,0)
GPGPU-Sim uArch: core: 11, cta: 5 initialized @(6,0)
GPGPU-Sim uArch: core: 12, cta: 5 initialized @(6,0)
GPGPU-Sim uArch: core: 13, cta: 5 initialized @(6,0)
GPGPU-Sim uArch: core: 14, cta: 5 initialized @(6,0)
GPGPU-Sim uArch: core:  0, cta: 5 initialized @(6,0)
GPGPU-Sim uArch: core:  1, cta: 6 initialized @(7,0)
GPGPU-Sim uArch: core:  2, cta: 6 initialized @(7,0)
GPGPU-Sim uArch: core:  3, cta: 6 initialized @(7,0)
GPGPU-Sim uArch: core:  4, cta: 6 initialized @(7,0)
GPGPU-Sim uArch: core:  5, cta: 6 initialized @(7,0)
GPGPU-Sim uArch: core:  6, cta: 6 initialized @(7,0)
GPGPU-Sim uArch: core:  7, cta: 6 initialized @(7,0)
GPGPU-Sim uArch: core:  8, cta: 6 initialized @(7,0)
GPGPU-Sim uArch: core:  9, cta: 6 initialized @(7,0)
GPGPU-Sim uArch: core: 10, cta: 6 initialized @(7,0)
GPGPU-Sim uArch: core: 11, cta: 6 initialized @(7,0)
GPGPU-Sim uArch: core: 12, cta: 6 initialized @(7,0)
GPGPU-Sim uArch: core: 13, cta: 6 initialized @(7,0)
GPGPU-Sim uArch: core: 14, cta: 6 initialized @(7,0)
GPGPU-Sim uArch: core:  0, cta: 6 initialized @(7,0)
GPGPU-Sim uArch: core:  1, cta: 7 initialized @(8,0)
GPGPU-Sim uArch: core:  2, cta: 7 initialized @(8,0)
GPGPU-Sim uArch: core:  3, cta: 7 initialized @(8,0)
GPGPU-Sim uArch: core:  4, cta: 7 initialized @(8,0)
GPGPU-Sim uArch: core:  5, cta: 7 initialized @(8,0)
GPGPU-Sim uArch: core:  6, cta: 7 initialized @(8,0)
GPGPU-Sim uArch: core:  7, cta: 7 initialized @(8,0)
GPGPU-Sim uArch: core:  8, cta: 7 initialized @(8,0)
GPGPU-Sim uArch: core:  9, cta: 7 initialized @(8,0)
GPGPU-Sim uArch: core: 10, cta: 7 initialized @(8,0)
GPGPU-Sim uArch: core: 11, cta: 7 initialized @(8,0)
GPGPU-Sim uArch: core: 12, cta: 7 initialized @(8,0)
GPGPU-Sim uArch: core: 13, cta: 7 initialized @(8,0)
GPGPU-Sim uArch: core: 14, cta: 7 initialized @(8,0)
GPGPU-Sim uArch: core:  0, cta: 7 initialized @(8,0)
GPGPU-Sim PTX: 100000 instructions simulated : ctaid=(112,0,0) tid=(95,0,0)
GPGPU-Sim uArch: cycles simulated: 500  inst.: 92160 (ipc=184.3) sim_rate=46080 (inst/sec) elapsed = 0:0:00:02 / Wed Mar  2 01:16:20 2016
GPGPU-Sim PTX: 200000 instructions simulated : ctaid=(101,0,0) tid=(31,0,0)
GPGPU-Sim PTX: 300000 instructions simulated : ctaid=(72,0,0) tid=(95,0,0)
GPGPU-Sim PTX: 400000 instructions simulated : ctaid=(52,0,0) tid=(95,0,0)
GPGPU-Sim uArch: cycles simulated: 2000  inst.: 457632 (ipc=228.8) sim_rate=152544 (inst/sec) elapsed = 0:0:00:03 / Wed Mar  2 01:16:21 2016
GPGPU-Sim PTX: 500000 instructions simulated : ctaid=(19,0,0) tid=(95,0,0)
GPGPU-Sim PTX: 600000 instructions simulated : ctaid=(115,0,0) tid=(31,0,0)
GPGPU-Sim PTX: 700000 instructions simulated : ctaid=(9,0,0) tid=(95,0,0)
GPGPU-Sim PTX: 800000 instructions simulated : ctaid=(51,0,0) tid=(31,0,0)
GPGPU-Sim PTX: 900000 instructions simulated : ctaid=(98,0,0) tid=(31,0,0)
GPGPU-Sim PTX: 1000000 instructions simulated : ctaid=(20,0,0) tid=(95,0,0)
GPGPU-Sim PTX: 1100000 instructions simulated : ctaid=(64,0,0) tid=(31,0,0)
GPGPU-Sim uArch: cycles simulated: 3500  inst.: 1108704 (ipc=316.8) sim_rate=277176 (inst/sec) elapsed = 0:0:00:04 / Wed Mar  2 01:16:22 2016
GPGPU-Sim PTX: 1200000 instructions simulated : ctaid=(20,0,0) tid=(63,0,0)
GPGPU-Sim PTX: 1300000 instructions simulated : ctaid=(56,0,0) tid=(127,0,0)
GPGPU-Sim PTX: 1400000 instructions simulated : ctaid=(53,0,0) tid=(63,0,0)
GPGPU-Sim PTX: 1500000 instructions simulated : ctaid=(14,0,0) tid=(31,0,0)
GPGPU-Sim uArch: cycles simulated: 4000  inst.: 1486368 (ipc=371.6) sim_rate=297273 (inst/sec) elapsed = 0:0:00:05 / Wed Mar  2 01:16:23 2016
GPGPU-Sim PTX: 1600000 instructions simulated : ctaid=(72,0,0) tid=(63,0,0)
GPGPU-Sim PTX: 1700000 instructions simulated : ctaid=(68,0,0) tid=(127,0,0)
GPGPU-Sim PTX: 1800000 instructions simulated : ctaid=(100,0,0) tid=(127,0,0)
GPGPU-Sim PTX: 1900000 instructions simulated : ctaid=(16,0,0) tid=(95,0,0)
GPGPU-Sim PTX: 2000000 instructions simulated : ctaid=(18,0,0) tid=(31,0,0)
GPGPU-Sim PTX: 2100000 instructions simulated : ctaid=(11,0,0) tid=(95,0,0)
GPGPU-Sim PTX: 2200000 instructions simulated : ctaid=(55,0,0) tid=(95,0,0)
GPGPU-Sim uArch: cycles simulated: 5500  inst.: 2232384 (ipc=405.9) sim_rate=372064 (inst/sec) elapsed = 0:0:00:06 / Wed Mar  2 01:16:24 2016
GPGPU-Sim PTX: 2300000 instructions simulated : ctaid=(19,0,0) tid=(31,0,0)
GPGPU-Sim PTX: 2400000 instructions simulated : ctaid=(20,0,0) tid=(127,0,0)
GPGPU-Sim PTX: 2500000 instructions simulated : ctaid=(56,0,0) tid=(31,0,0)
GPGPU-Sim PTX: 2600000 instructions simulated : ctaid=(16,0,0) tid=(127,0,0)
GPGPU-Sim PTX: 2700000 instructions simulated : ctaid=(59,0,0) tid=(31,0,0)
GPGPU-Sim PTX: 2800000 instructions simulated : ctaid=(79,0,0) tid=(31,0,0)
GPGPU-Sim PTX: 2900000 instructions simulated : ctaid=(54,0,0) tid=(127,0,0)
GPGPU-Sim uArch: cycles simulated: 6500  inst.: 2947616 (ipc=453.5) sim_rate=421088 (inst/sec) elapsed = 0:0:00:07 / Wed Mar  2 01:16:25 2016
GPGPU-Sim PTX: 3000000 instructions simulated : ctaid=(82,0,0) tid=(95,0,0)
GPGPU-Sim PTX: 3100000 instructions simulated : ctaid=(92,0,0) tid=(95,0,0)
GPGPU-Sim PTX: 3200000 instructions simulated : ctaid=(3,0,0) tid=(31,0,0)
GPGPU-Sim PTX: 3300000 instructions simulated : ctaid=(7,0,0) tid=(31,0,0)
GPGPU-Sim uArch: cycles simulated: 7000  inst.: 3288096 (ipc=469.7) sim_rate=411012 (inst/sec) elapsed = 0:0:00:08 / Wed Mar  2 01:16:26 2016
GPGPU-Sim PTX: 3400000 instructions simulated : ctaid=(33,0,0) tid=(31,0,0)
GPGPU-Sim PTX: 3500000 instructions simulated : ctaid=(4,0,0) tid=(127,0,0)
GPGPU-Sim PTX: 3600000 instructions simulated : ctaid=(59,0,0) tid=(95,0,0)
GPGPU-Sim PTX: 3700000 instructions simulated : ctaid=(66,0,0) tid=(31,0,0)
GPGPU-Sim PTX: 3800000 instructions simulated : ctaid=(25,0,0) tid=(127,0,0)
GPGPU-Sim PTX: 3900000 instructions simulated : ctaid=(73,0,0) tid=(95,0,0)
GPGPU-Sim PTX: 4000000 instructions simulated : ctaid=(35,0,0) tid=(127,0,0)
GPGPU-Sim uArch: cycles simulated: 8000  inst.: 3991776 (ipc=499.0) sim_rate=443530 (inst/sec) elapsed = 0:0:00:09 / Wed Mar  2 01:16:27 2016
GPGPU-Sim PTX: 4100000 instructions simulated : ctaid=(64,0,0) tid=(95,0,0)
GPGPU-Sim PTX: 4200000 instructions simulated : ctaid=(93,0,0) tid=(31,0,0)
GPGPU-Sim PTX: 4300000 instructions simulated : ctaid=(37,0,0) tid=(63,0,0)
GPGPU-Sim PTX: 4400000 instructions simulated : ctaid=(20,0,0) tid=(31,0,0)
GPGPU-Sim PTX: 4500000 instructions simulated : ctaid=(2,0,0) tid=(63,0,0)
GPGPU-Sim PTX: 4600000 instructions simulated : ctaid=(24,0,0) tid=(63,0,0)
GPGPU-Sim PTX: 4700000 instructions simulated : ctaid=(45,0,0) tid=(95,0,0)
GPGPU-Sim uArch: cycles simulated: 9000  inst.: 4688064 (ipc=520.9) sim_rate=468806 (inst/sec) elapsed = 0:0:00:10 / Wed Mar  2 01:16:28 2016
GPGPU-Sim PTX: 4800000 instructions simulated : ctaid=(53,0,0) tid=(95,0,0)
GPGPU-Sim PTX: 4900000 instructions simulated : ctaid=(91,0,0) tid=(31,0,0)
GPGPU-Sim PTX: 5000000 instructions simulated : ctaid=(50,0,0) tid=(31,0,0)
GPGPU-Sim PTX: 5100000 instructions simulated : ctaid=(0,0,0) tid=(31,0,0)
GPGPU-Sim PTX: 5200000 instructions simulated : ctaid=(13,0,0) tid=(95,0,0)
GPGPU-Sim PTX: 5300000 instructions simulated : ctaid=(4,0,0) tid=(127,0,0)
GPGPU-Sim PTX: 5400000 instructions simulated : ctaid=(35,0,0) tid=(31,0,0)
GPGPU-Sim uArch: cycles simulated: 10000  inst.: 5424064 (ipc=542.4) sim_rate=493096 (inst/sec) elapsed = 0:0:00:11 / Wed Mar  2 01:16:29 2016
GPGPU-Sim PTX: 5500000 instructions simulated : ctaid=(47,0,0) tid=(127,0,0)
GPGPU-Sim PTX: 5600000 instructions simulated : ctaid=(12,0,0) tid=(63,0,0)
GPGPU-Sim PTX: 5700000 instructions simulated : ctaid=(33,0,0) tid=(31,0,0)
GPGPU-Sim PTX: 5800000 instructions simulated : ctaid=(54,0,0) tid=(31,0,0)
GPGPU-Sim PTX: 5900000 instructions simulated : ctaid=(51,0,0) tid=(127,0,0)
GPGPU-Sim PTX: 6000000 instructions simulated : ctaid=(73,0,0) tid=(31,0,0)
GPGPU-Sim PTX: 6100000 instructions simulated : ctaid=(66,0,0) tid=(31,0,0)
GPGPU-Sim uArch: cycles simulated: 11000  inst.: 6137728 (ipc=558.0) sim_rate=511477 (inst/sec) elapsed = 0:0:00:12 / Wed Mar  2 01:16:30 2016
GPGPU-Sim PTX: 6200000 instructions simulated : ctaid=(43,0,0) tid=(63,0,0)
GPGPU-Sim PTX: 6300000 instructions simulated : ctaid=(14,0,0) tid=(63,0,0)
GPGPU-Sim PTX: 6400000 instructions simulated : ctaid=(67,0,0) tid=(95,0,0)
GPGPU-Sim PTX: 6500000 instructions simulated : ctaid=(74,0,0) tid=(95,0,0)
GPGPU-Sim PTX: 6600000 instructions simulated : ctaid=(59,0,0) tid=(31,0,0)
GPGPU-Sim PTX: 6700000 instructions simulated : ctaid=(46,0,0) tid=(63,0,0)
GPGPU-Sim PTX: 6800000 instructions simulated : ctaid=(16,0,0) tid=(95,0,0)
GPGPU-Sim PTX: 6900000 instructions simulated : ctaid=(105,0,0) tid=(31,0,0)
GPGPU-Sim uArch: cycles simulated: 12000  inst.: 6869472 (ipc=572.5) sim_rate=528420 (inst/sec) elapsed = 0:0:00:13 / Wed Mar  2 01:16:31 2016
GPGPU-Sim PTX: 7000000 instructions simulated : ctaid=(100,0,0) tid=(31,0,0)
GPGPU-Sim PTX: 7100000 instructions simulated : ctaid=(85,0,0) tid=(95,0,0)
GPGPU-Sim PTX: 7200000 instructions simulated : ctaid=(33,0,0) tid=(95,0,0)
GPGPU-Sim PTX: 7300000 instructions simulated : ctaid=(3,0,0) tid=(127,0,0)
GPGPU-Sim PTX: 7400000 instructions simulated : ctaid=(9,0,0) tid=(63,0,0)
GPGPU-Sim PTX: 7500000 instructions simulated : ctaid=(3,0,0) tid=(95,0,0)
GPGPU-Sim PTX: 7600000 instructions simulated : ctaid=(12,0,0) tid=(127,0,0)
GPGPU-Sim uArch: cycles simulated: 13000  inst.: 7593152 (ipc=584.1) sim_rate=542368 (inst/sec) elapsed = 0:0:00:14 / Wed Mar  2 01:16:32 2016
GPGPU-Sim PTX: 7700000 instructions simulated : ctaid=(65,0,0) tid=(31,0,0)
GPGPU-Sim PTX: 7800000 instructions simulated : ctaid=(35,0,0) tid=(127,0,0)
GPGPU-Sim PTX: 7900000 instructions simulated : ctaid=(31,0,0) tid=(31,0,0)
GPGPU-Sim PTX: 8000000 instructions simulated : ctaid=(75,0,0) tid=(127,0,0)
GPGPU-Sim PTX: 8100000 instructions simulated : ctaid=(44,0,0) tid=(95,0,0)
GPGPU-Sim PTX: 8200000 instructions simulated : ctaid=(40,0,0) tid=(127,0,0)
GPGPU-Sim PTX: 8300000 instructions simulated : ctaid=(88,0,0) tid=(31,0,0)
GPGPU-Sim uArch: cycles simulated: 14000  inst.: 8312448 (ipc=593.7) sim_rate=554163 (inst/sec) elapsed = 0:0:00:15 / Wed Mar  2 01:16:33 2016
GPGPU-Sim PTX: 8400000 instructions simulated : ctaid=(85,0,0) tid=(95,0,0)
GPGPU-Sim PTX: 8500000 instructions simulated : ctaid=(9,0,0) tid=(95,0,0)
GPGPU-Sim PTX: 8600000 instructions simulated : ctaid=(56,0,0) tid=(95,0,0)
GPGPU-Sim PTX: 8700000 instructions simulated : ctaid=(51,0,0) tid=(127,0,0)
GPGPU-Sim PTX: 8800000 instructions simulated : ctaid=(51,0,0) tid=(63,0,0)
GPGPU-Sim PTX: 8900000 instructions simulated : ctaid=(49,0,0) tid=(31,0,0)
GPGPU-Sim PTX: 9000000 instructions simulated : ctaid=(50,0,0) tid=(63,0,0)
GPGPU-Sim uArch: cycles simulated: 15000  inst.: 9034592 (ipc=602.3) sim_rate=564662 (inst/sec) elapsed = 0:0:00:16 / Wed Mar  2 01:16:34 2016
GPGPU-Sim PTX: 9100000 instructions simulated : ctaid=(30,0,0) tid=(63,0,0)
GPGPU-Sim PTX: 9200000 instructions simulated : ctaid=(56,0,0) tid=(31,0,0)
GPGPU-Sim PTX: 9300000 instructions simulated : ctaid=(45,0,0) tid=(31,0,0)
GPGPU-Sim PTX: 9400000 instructions simulated : ctaid=(7,0,0) tid=(31,0,0)
GPGPU-Sim PTX: 9500000 instructions simulated : ctaid=(52,0,0) tid=(127,0,0)
GPGPU-Sim PTX: 9600000 instructions simulated : ctaid=(17,0,0) tid=(95,0,0)
GPGPU-Sim PTX: 9700000 instructions simulated : ctaid=(27,0,0) tid=(31,0,0)
GPGPU-Sim uArch: cycles simulated: 16000  inst.: 9748576 (ipc=609.3) sim_rate=573445 (inst/sec) elapsed = 0:0:00:17 / Wed Mar  2 01:16:35 2016
GPGPU-Sim PTX: 9800000 instructions simulated : ctaid=(77,0,0) tid=(95,0,0)
GPGPU-Sim PTX: 9900000 instructions simulated : ctaid=(15,0,0) tid=(127,0,0)
GPGPU-Sim PTX: 10000000 instructions simulated : ctaid=(80,0,0) tid=(31,0,0)
GPGPU-Sim PTX: 10100000 instructions simulated : ctaid=(12,0,0) tid=(127,0,0)
GPGPU-Sim PTX: 10200000 instructions simulated : ctaid=(6,0,0) tid=(127,0,0)
GPGPU-Sim PTX: 10300000 instructions simulated : ctaid=(29,0,0) tid=(127,0,0)
GPGPU-Sim PTX: 10400000 instructions simulated : ctaid=(23,0,0) tid=(63,0,0)
GPGPU-Sim PTX: 10500000 instructions simulated : ctaid=(82,0,0) tid=(63,0,0)
GPGPU-Sim uArch: cycles simulated: 17000  inst.: 10479872 (ipc=616.5) sim_rate=582215 (inst/sec) elapsed = 0:0:00:18 / Wed Mar  2 01:16:36 2016
GPGPU-Sim PTX: 10600000 instructions simulated : ctaid=(63,0,0) tid=(63,0,0)
GPGPU-Sim PTX: 10700000 instructions simulated : ctaid=(27,0,0) tid=(31,0,0)
GPGPU-Sim PTX: 10800000 instructions simulated : ctaid=(14,0,0) tid=(127,0,0)
GPGPU-Sim PTX: 10900000 instructions simulated : ctaid=(38,0,0) tid=(63,0,0)
GPGPU-Sim PTX: 11000000 instructions simulated : ctaid=(49,0,0) tid=(31,0,0)
GPGPU-Sim PTX: 11100000 instructions simulated : ctaid=(0,0,0) tid=(127,0,0)
GPGPU-Sim PTX: 11200000 instructions simulated : ctaid=(57,0,0) tid=(31,0,0)
GPGPU-Sim uArch: cycles simulated: 18000  inst.: 11209120 (ipc=622.7) sim_rate=589953 (inst/sec) elapsed = 0:0:00:19 / Wed Mar  2 01:16:37 2016
GPGPU-Sim PTX: 11300000 instructions simulated : ctaid=(9,0,0) tid=(31,0,0)
GPGPU-Sim PTX: 11400000 instructions simulated : ctaid=(51,0,0) tid=(63,0,0)
GPGPU-Sim PTX: 11500000 instructions simulated : ctaid=(29,0,0) tid=(127,0,0)
GPGPU-Sim PTX: 11600000 instructions simulated : ctaid=(12,0,0) tid=(31,0,0)
GPGPU-Sim PTX: 11700000 instructions simulated : ctaid=(8,0,0) tid=(63,0,0)
GPGPU-Sim PTX: 11800000 instructions simulated : ctaid=(6,0,0) tid=(31,0,0)
GPGPU-Sim PTX: 11900000 instructions simulated : ctaid=(2,0,0) tid=(95,0,0)
GPGPU-Sim uArch: cycles simulated: 19000  inst.: 11934688 (ipc=628.1) sim_rate=596734 (inst/sec) elapsed = 0:0:00:20 / Wed Mar  2 01:16:38 2016
GPGPU-Sim PTX: 12000000 instructions simulated : ctaid=(51,0,0) tid=(31,0,0)
GPGPU-Sim PTX: 12100000 instructions simulated : ctaid=(48,0,0) tid=(31,0,0)
GPGPU-Sim PTX: 12200000 instructions simulated : ctaid=(58,0,0) tid=(31,0,0)
GPGPU-Sim PTX: 12300000 instructions simulated : ctaid=(46,0,0) tid=(63,0,0)
GPGPU-Sim uArch: cycles simulated: 19500  inst.: 12301088 (ipc=630.8) sim_rate=585766 (inst/sec) elapsed = 0:0:00:21 / Wed Mar  2 01:16:39 2016
GPGPU-Sim PTX: 12400000 instructions simulated : ctaid=(34,0,0) tid=(63,0,0)
GPGPU-Sim PTX: 12500000 instructions simulated : ctaid=(11,0,0) tid=(31,0,0)
GPGPU-Sim PTX: 12600000 instructions simulated : ctaid=(36,0,0) tid=(95,0,0)
GPGPU-Sim PTX: 12700000 instructions simulated : ctaid=(13,0,0) tid=(95,0,0)
GPGPU-Sim PTX: 12800000 instructions simulated : ctaid=(35,0,0) tid=(63,0,0)
GPGPU-Sim PTX: 12900000 instructions simulated : ctaid=(65,0,0) tid=(31,0,0)
GPGPU-Sim PTX: 13000000 instructions simulated : ctaid=(6,0,0) tid=(95,0,0)
GPGPU-Sim uArch: cycles simulated: 20500  inst.: 13012160 (ipc=634.7) sim_rate=591461 (inst/sec) elapsed = 0:0:00:22 / Wed Mar  2 01:16:40 2016
GPGPU-Sim PTX: 13100000 instructions simulated : ctaid=(50,0,0) tid=(127,0,0)
GPGPU-Sim PTX: 13200000 instructions simulated : ctaid=(84,0,0) tid=(127,0,0)
GPGPU-Sim PTX: 13300000 instructions simulated : ctaid=(74,0,0) tid=(63,0,0)
GPGPU-Sim PTX: 13400000 instructions simulated : ctaid=(49,0,0) tid=(95,0,0)
GPGPU-Sim PTX: 13500000 instructions simulated : ctaid=(56,0,0) tid=(127,0,0)
GPGPU-Sim PTX: 13600000 instructions simulated : ctaid=(83,0,0) tid=(63,0,0)
GPGPU-Sim PTX: 13700000 instructions simulated : ctaid=(93,0,0) tid=(127,0,0)
GPGPU-Sim uArch: cycles simulated: 21500  inst.: 13751648 (ipc=639.6) sim_rate=597897 (inst/sec) elapsed = 0:0:00:23 / Wed Mar  2 01:16:41 2016
GPGPU-Sim PTX: 13800000 instructions simulated : ctaid=(9,0,0) tid=(127,0,0)
GPGPU-Sim PTX: 13900000 instructions simulated : ctaid=(62,0,0) tid=(63,0,0)
GPGPU-Sim PTX: 14000000 instructions simulated : ctaid=(98,0,0) tid=(95,0,0)
GPGPU-Sim PTX: 14100000 instructions simulated : ctaid=(65,0,0) tid=(31,0,0)
GPGPU-Sim PTX: 14200000 instructions simulated : ctaid=(18,0,0) tid=(95,0,0)
GPGPU-Sim PTX: 14300000 instructions simulated : ctaid=(64,0,0) tid=(127,0,0)
GPGPU-Sim PTX: 14400000 instructions simulated : ctaid=(87,0,0) tid=(63,0,0)
GPGPU-Sim PTX: 14500000 instructions simulated : ctaid=(35,0,0) tid=(127,0,0)
GPGPU-Sim uArch: cycles simulated: 22500  inst.: 14481824 (ipc=643.6) sim_rate=603409 (inst/sec) elapsed = 0:0:00:24 / Wed Mar  2 01:16:42 2016
GPGPU-Sim PTX: 14600000 instructions simulated : ctaid=(5,0,0) tid=(31,0,0)
GPGPU-Sim PTX: 14700000 instructions simulated : ctaid=(62,0,0) tid=(127,0,0)
GPGPU-Sim PTX: 14800000 instructions simulated : ctaid=(92,0,0) tid=(31,0,0)
GPGPU-Sim PTX: 14900000 instructions simulated : ctaid=(4,0,0) tid=(95,0,0)
GPGPU-Sim PTX: 15000000 instructions simulated : ctaid=(23,0,0) tid=(31,0,0)
GPGPU-Sim PTX: 15100000 instructions simulated : ctaid=(91,0,0) tid=(31,0,0)
GPGPU-Sim PTX: 15200000 instructions simulated : ctaid=(73,0,0) tid=(31,0,0)
GPGPU-Sim uArch: cycles simulated: 23500  inst.: 15197856 (ipc=646.7) sim_rate=607914 (inst/sec) elapsed = 0:0:00:25 / Wed Mar  2 01:16:43 2016
GPGPU-Sim PTX: 15300000 instructions simulated : ctaid=(13,0,0) tid=(95,0,0)
GPGPU-Sim PTX: 15400000 instructions simulated : ctaid=(58,0,0) tid=(95,0,0)
GPGPU-Sim PTX: 15500000 instructions simulated : ctaid=(60,0,0) tid=(31,0,0)
GPGPU-Sim PTX: 15600000 instructions simulated : ctaid=(51,0,0) tid=(31,0,0)
GPGPU-Sim PTX: 15700000 instructions simulated : ctaid=(35,0,0) tid=(95,0,0)
GPGPU-Sim PTX: 15800000 instructions simulated : ctaid=(3,0,0) tid=(31,0,0)
GPGPU-Sim PTX: 15900000 instructions simulated : ctaid=(69,0,0) tid=(31,0,0)
GPGPU-Sim uArch: cycles simulated: 24500  inst.: 15914656 (ipc=649.6) sim_rate=612102 (inst/sec) elapsed = 0:0:00:26 / Wed Mar  2 01:16:44 2016
GPGPU-Sim PTX: 16000000 instructions simulated : ctaid=(3,0,0) tid=(127,0,0)
GPGPU-Sim PTX: 16100000 instructions simulated : ctaid=(86,0,0) tid=(63,0,0)
GPGPU-Sim PTX: 16200000 instructions simulated : ctaid=(28,0,0) tid=(127,0,0)
GPGPU-Sim PTX: 16300000 instructions simulated : ctaid=(82,0,0) tid=(127,0,0)
GPGPU-Sim PTX: 16400000 instructions simulated : ctaid=(24,0,0) tid=(95,0,0)
GPGPU-Sim PTX: 16500000 instructions simulated : ctaid=(15,0,0) tid=(127,0,0)
GPGPU-Sim PTX: 16600000 instructions simulated : ctaid=(28,0,0) tid=(127,0,0)
GPGPU-Sim uArch: cycles simulated: 25500  inst.: 16634272 (ipc=652.3) sim_rate=616084 (inst/sec) elapsed = 0:0:00:27 / Wed Mar  2 01:16:45 2016
GPGPU-Sim PTX: 16700000 instructions simulated : ctaid=(69,0,0) tid=(63,0,0)
GPGPU-Sim PTX: 16800000 instructions simulated : ctaid=(78,0,0) tid=(127,0,0)
GPGPU-Sim PTX: 16900000 instructions simulated : ctaid=(2,0,0) tid=(95,0,0)
GPGPU-Sim PTX: 17000000 instructions simulated : ctaid=(14,0,0) tid=(31,0,0)
GPGPU-Sim uArch: cycles simulated: 26000  inst.: 17002464 (ipc=653.9) sim_rate=607230 (inst/sec) elapsed = 0:0:00:28 / Wed Mar  2 01:16:46 2016
GPGPU-Sim PTX: 17100000 instructions simulated : ctaid=(40,0,0) tid=(95,0,0)
GPGPU-Sim PTX: 17200000 instructions simulated : ctaid=(5,0,0) tid=(63,0,0)
GPGPU-Sim PTX: 17300000 instructions simulated : ctaid=(50,0,0) tid=(95,0,0)
GPGPU-Sim PTX: 17400000 instructions simulated : ctaid=(51,0,0) tid=(95,0,0)
GPGPU-Sim PTX: 17500000 instructions simulated : ctaid=(14,0,0) tid=(127,0,0)
GPGPU-Sim PTX: 17600000 instructions simulated : ctaid=(72,0,0) tid=(31,0,0)
GPGPU-Sim PTX: 17700000 instructions simulated : ctaid=(21,0,0) tid=(127,0,0)
GPGPU-Sim uArch: cycles simulated: 27000  inst.: 17727968 (ipc=656.6) sim_rate=611309 (inst/sec) elapsed = 0:0:00:29 / Wed Mar  2 01:16:47 2016
GPGPU-Sim PTX: 17800000 instructions simulated : ctaid=(31,0,0) tid=(95,0,0)
GPGPU-Sim PTX: 17900000 instructions simulated : ctaid=(50,0,0) tid=(31,0,0)
GPGPU-Sim PTX: 18000000 instructions simulated : ctaid=(58,0,0) tid=(31,0,0)
GPGPU-Sim PTX: 18100000 instructions simulated : ctaid=(36,0,0) tid=(63,0,0)
GPGPU-Sim PTX: 18200000 instructions simulated : ctaid=(49,0,0) tid=(63,0,0)
GPGPU-Sim PTX: 18300000 instructions simulated : ctaid=(54,0,0) tid=(31,0,0)
GPGPU-Sim PTX: 18400000 instructions simulated : ctaid=(29,0,0) tid=(95,0,0)
GPGPU-Sim uArch: cycles simulated: 28000  inst.: 18439904 (ipc=658.6) sim_rate=614663 (inst/sec) elapsed = 0:0:00:30 / Wed Mar  2 01:16:48 2016
GPGPU-Sim PTX: 18500000 instructions simulated : ctaid=(2,0,0) tid=(95,0,0)
GPGPU-Sim PTX: 18600000 instructions simulated : ctaid=(7,0,0) tid=(127,0,0)
GPGPU-Sim PTX: 18700000 instructions simulated : ctaid=(69,0,0) tid=(95,0,0)
GPGPU-Sim PTX: 18800000 instructions simulated : ctaid=(24,0,0) tid=(95,0,0)
GPGPU-Sim uArch: cycles simulated: 28500  inst.: 18808992 (ipc=660.0) sim_rate=606741 (inst/sec) elapsed = 0:0:00:31 / Wed Mar  2 01:16:49 2016
GPGPU-Sim PTX: 18900000 instructions simulated : ctaid=(17,0,0) tid=(31,0,0)
GPGPU-Sim PTX: 19000000 instructions simulated : ctaid=(61,0,0) tid=(31,0,0)
GPGPU-Sim PTX: 19100000 instructions simulated : ctaid=(82,0,0) tid=(95,0,0)
GPGPU-Sim PTX: 19200000 instructions simulated : ctaid=(41,0,0) tid=(31,0,0)
GPGPU-Sim PTX: 19300000 instructions simulated : ctaid=(21,0,0) tid=(31,0,0)
GPGPU-Sim PTX: 19400000 instructions simulated : ctaid=(38,0,0) tid=(63,0,0)
GPGPU-Sim PTX: 19500000 instructions simulated : ctaid=(80,0,0) tid=(31,0,0)
GPGPU-Sim uArch: cycles simulated: 29500  inst.: 19531104 (ipc=662.1) sim_rate=610347 (inst/sec) elapsed = 0:0:00:32 / Wed Mar  2 01:16:50 2016
GPGPU-Sim PTX: 19600000 instructions simulated : ctaid=(50,0,0) tid=(95,0,0)
GPGPU-Sim PTX: 19700000 instructions simulated : ctaid=(10,0,0) tid=(31,0,0)
GPGPU-Sim PTX: 19800000 instructions simulated : ctaid=(14,0,0) tid=(95,0,0)
GPGPU-Sim PTX: 19900000 instructions simulated : ctaid=(29,0,0) tid=(31,0,0)
GPGPU-Sim PTX: 20000000 instructions simulated : ctaid=(53,0,0) tid=(95,0,0)
GPGPU-Sim PTX: 20100000 instructions simulated : ctaid=(11,0,0) tid=(63,0,0)
GPGPU-Sim PTX: 20200000 instructions simulated : ctaid=(87,0,0) tid=(95,0,0)
GPGPU-Sim uArch: cycles simulated: 30500  inst.: 20250560 (ipc=664.0) sim_rate=613653 (inst/sec) elapsed = 0:0:00:33 / Wed Mar  2 01:16:51 2016
GPGPU-Sim PTX: 20300000 instructions simulated : ctaid=(61,0,0) tid=(127,0,0)
GPGPU-Sim PTX: 20400000 instructions simulated : ctaid=(19,0,0) tid=(31,0,0)
GPGPU-Sim PTX: 20500000 instructions simulated : ctaid=(7,0,0) tid=(95,0,0)
GPGPU-Sim PTX: 20600000 instructions simulated : ctaid=(54,0,0) tid=(95,0,0)
GPGPU-Sim uArch: cycles simulated: 31000  inst.: 20613312 (ipc=664.9) sim_rate=606273 (inst/sec) elapsed = 0:0:00:34 / Wed Mar  2 01:16:52 2016
GPGPU-Sim PTX: 20700000 instructions simulated : ctaid=(13,0,0) tid=(31,0,0)
GPGPU-Sim PTX: 20800000 instructions simulated : ctaid=(40,0,0) tid=(127,0,0)
GPGPU-Sim PTX: 20900000 instructions simulated : ctaid=(54,0,0) tid=(127,0,0)
GPGPU-Sim PTX: 21000000 instructions simulated : ctaid=(30,0,0) tid=(127,0,0)
GPGPU-Sim PTX: 21100000 instructions simulated : ctaid=(40,0,0) tid=(95,0,0)
GPGPU-Sim PTX: 21200000 instructions simulated : ctaid=(34,0,0) tid=(95,0,0)
GPGPU-Sim PTX: 21300000 instructions simulated : ctaid=(42,0,0) tid=(95,0,0)
GPGPU-Sim uArch: cycles simulated: 32000  inst.: 21336736 (ipc=666.8) sim_rate=609621 (inst/sec) elapsed = 0:0:00:35 / Wed Mar  2 01:16:53 2016
GPGPU-Sim PTX: 21400000 instructions simulated : ctaid=(39,0,0) tid=(31,0,0)
GPGPU-Sim PTX: 21500000 instructions simulated : ctaid=(53,0,0) tid=(95,0,0)
GPGPU-Sim PTX: 21600000 instructions simulated : ctaid=(51,0,0) tid=(63,0,0)
GPGPU-Sim PTX: 21700000 instructions simulated : ctaid=(4,0,0) tid=(31,0,0)
GPGPU-Sim PTX: 21800000 instructions simulated : ctaid=(66,0,0) tid=(127,0,0)
GPGPU-Sim PTX: 21900000 instructions simulated : ctaid=(0,0,0) tid=(127,0,0)
GPGPU-Sim PTX: 22000000 instructions simulated : ctaid=(72,0,0) tid=(127,0,0)
GPGPU-Sim uArch: cycles simulated: 33000  inst.: 22060832 (ipc=668.5) sim_rate=612800 (inst/sec) elapsed = 0:0:00:36 / Wed Mar  2 01:16:54 2016
GPGPU-Sim PTX: 22100000 instructions simulated : ctaid=(46,0,0) tid=(63,0,0)
GPGPU-Sim PTX: 22200000 instructions simulated : ctaid=(12,0,0) tid=(95,0,0)
GPGPU-Sim PTX: 22300000 instructions simulated : ctaid=(18,0,0) tid=(63,0,0)
GPGPU-Sim PTX: 22400000 instructions simulated : ctaid=(38,0,0) tid=(127,0,0)
GPGPU-Sim uArch: cycles simulated: 33500  inst.: 22424544 (ipc=669.4) sim_rate=606068 (inst/sec) elapsed = 0:0:00:37 / Wed Mar  2 01:16:55 2016
GPGPU-Sim PTX: 22500000 instructions simulated : ctaid=(39,0,0) tid=(31,0,0)
GPGPU-Sim PTX: 22600000 instructions simulated : ctaid=(38,0,0) tid=(31,0,0)
GPGPU-Sim PTX: 22700000 instructions simulated : ctaid=(69,0,0) tid=(63,0,0)
GPGPU-Sim PTX: 22800000 instructions simulated : ctaid=(91,0,0) tid=(95,0,0)
GPGPU-Sim PTX: 22900000 instructions simulated : ctaid=(4,0,0) tid=(63,0,0)
GPGPU-Sim PTX: 23000000 instructions simulated : ctaid=(24,0,0) tid=(95,0,0)
GPGPU-Sim PTX: 23100000 instructions simulated : ctaid=(17,0,0) tid=(127,0,0)
GPGPU-Sim uArch: cycles simulated: 34500  inst.: 23145024 (ipc=670.9) sim_rate=609079 (inst/sec) elapsed = 0:0:00:38 / Wed Mar  2 01:16:56 2016
GPGPU-Sim PTX: 23200000 instructions simulated : ctaid=(40,0,0) tid=(127,0,0)
GPGPU-Sim PTX: 23300000 instructions simulated : ctaid=(28,0,0) tid=(127,0,0)
GPGPU-Sim PTX: 23400000 instructions simulated : ctaid=(58,0,0) tid=(31,0,0)
GPGPU-Sim PTX: 23500000 instructions simulated : ctaid=(41,0,0) tid=(95,0,0)
GPGPU-Sim PTX: 23600000 instructions simulated : ctaid=(86,0,0) tid=(95,0,0)
GPGPU-Sim PTX: 23700000 instructions simulated : ctaid=(65,0,0) tid=(95,0,0)
GPGPU-Sim PTX: 23800000 instructions simulated : ctaid=(36,0,0) tid=(127,0,0)
GPGPU-Sim PTX: 23900000 instructions simulated : ctaid=(33,0,0) tid=(95,0,0)
GPGPU-Sim uArch: cycles simulated: 35500  inst.: 23867680 (ipc=672.3) sim_rate=611991 (inst/sec) elapsed = 0:0:00:39 / Wed Mar  2 01:16:57 2016
GPGPU-Sim PTX: 24000000 instructions simulated : ctaid=(5,0,0) tid=(95,0,0)
GPGPU-Sim PTX: 24100000 instructions simulated : ctaid=(11,0,0) tid=(63,0,0)
GPGPU-Sim PTX: 24200000 instructions simulated : ctaid=(99,0,0) tid=(31,0,0)
GPGPU-Sim uArch: cycles simulated: 36000  inst.: 24234496 (ipc=673.2) sim_rate=605862 (inst/sec) elapsed = 0:0:00:40 / Wed Mar  2 01:16:58 2016
GPGPU-Sim PTX: 24300000 instructions simulated : ctaid=(8,0,0) tid=(95,0,0)
GPGPU-Sim PTX: 24400000 instructions simulated : ctaid=(44,0,0) tid=(95,0,0)
GPGPU-Sim PTX: 24500000 instructions simulated : ctaid=(10,0,0) tid=(31,0,0)
GPGPU-Sim PTX: 24600000 instructions simulated : ctaid=(2,0,0) tid=(63,0,0)
GPGPU-Sim PTX: 24700000 instructions simulated : ctaid=(22,0,0) tid=(31,0,0)
GPGPU-Sim PTX: 24800000 instructions simulated : ctaid=(63,0,0) tid=(127,0,0)
GPGPU-Sim PTX: 24900000 instructions simulated : ctaid=(4,0,0) tid=(95,0,0)
GPGPU-Sim uArch: cycles simulated: 37000  inst.: 24960512 (ipc=674.6) sim_rate=608792 (inst/sec) elapsed = 0:0:00:41 / Wed Mar  2 01:16:59 2016
GPGPU-Sim PTX: 25000000 instructions simulated : ctaid=(3,0,0) tid=(127,0,0)
GPGPU-Sim PTX: 25100000 instructions simulated : ctaid=(61,0,0) tid=(95,0,0)
GPGPU-Sim PTX: 25200000 instructions simulated : ctaid=(64,0,0) tid=(95,0,0)
GPGPU-Sim PTX: 25300000 instructions simulated : ctaid=(54,0,0) tid=(95,0,0)
GPGPU-Sim PTX: 25400000 instructions simulated : ctaid=(82,0,0) tid=(31,0,0)
GPGPU-Sim PTX: 25500000 instructions simulated : ctaid=(11,0,0) tid=(63,0,0)
GPGPU-Sim PTX: 25600000 instructions simulated : ctaid=(23,0,0) tid=(127,0,0)
GPGPU-Sim PTX: 25700000 instructions simulated : ctaid=(34,0,0) tid=(95,0,0)
GPGPU-Sim uArch: cycles simulated: 38000  inst.: 25688096 (ipc=676.0) sim_rate=611621 (inst/sec) elapsed = 0:0:00:42 / Wed Mar  2 01:17:00 2016
GPGPU-Sim PTX: 25800000 instructions simulated : ctaid=(44,0,0) tid=(63,0,0)
GPGPU-Sim PTX: 25900000 instructions simulated : ctaid=(3,0,0) tid=(31,0,0)
GPGPU-Sim PTX: 26000000 instructions simulated : ctaid=(36,0,0) tid=(127,0,0)
GPGPU-Sim uArch: cycles simulated: 38500  inst.: 26054592 (ipc=676.7) sim_rate=605920 (inst/sec) elapsed = 0:0:00:43 / Wed Mar  2 01:17:01 2016
GPGPU-Sim PTX: 26100000 instructions simulated : ctaid=(94,0,0) tid=(63,0,0)
GPGPU-Sim PTX: 26200000 instructions simulated : ctaid=(14,0,0) tid=(31,0,0)
GPGPU-Sim PTX: 26300000 instructions simulated : ctaid=(8,0,0) tid=(31,0,0)
GPGPU-Sim PTX: 26400000 instructions simulated : ctaid=(55,0,0) tid=(63,0,0)
GPGPU-Sim PTX: 26500000 instructions simulated : ctaid=(63,0,0) tid=(31,0,0)
GPGPU-Sim PTX: 26600000 instructions simulated : ctaid=(63,0,0) tid=(95,0,0)
GPGPU-Sim PTX: 26700000 instructions simulated : ctaid=(4,0,0) tid=(127,0,0)
GPGPU-Sim PTX: 26800000 instructions simulated : ctaid=(57,0,0) tid=(95,0,0)
GPGPU-Sim uArch: cycles simulated: 39500  inst.: 26771200 (ipc=677.8) sim_rate=608436 (inst/sec) elapsed = 0:0:00:44 / Wed Mar  2 01:17:02 2016
GPGPU-Sim PTX: 26900000 instructions simulated : ctaid=(5,0,0) tid=(127,0,0)
GPGPU-Sim PTX: 27000000 instructions simulated : ctaid=(25,0,0) tid=(31,0,0)
GPGPU-Sim PTX: 27100000 instructions simulated : ctaid=(55,0,0) tid=(127,0,0)
GPGPU-Sim PTX: 27200000 instructions simulated : ctaid=(65,0,0) tid=(63,0,0)
GPGPU-Sim PTX: 27300000 instructions simulated : ctaid=(41,0,0) tid=(31,0,0)
GPGPU-Sim PTX: 27400000 instructions simulated : ctaid=(35,0,0) tid=(31,0,0)
GPGPU-Sim PTX: 27500000 instructions simulated : ctaid=(25,0,0) tid=(63,0,0)
GPGPU-Sim uArch: cycles simulated: 40500  inst.: 27500960 (ipc=679.0) sim_rate=611132 (inst/sec) elapsed = 0:0:00:45 / Wed Mar  2 01:17:03 2016
GPGPU-Sim PTX: 27600000 instructions simulated : ctaid=(108,0,0) tid=(31,0,0)
GPGPU-Sim PTX: 27700000 instructions simulated : ctaid=(25,0,0) tid=(127,0,0)
GPGPU-Sim PTX: 27800000 instructions simulated : ctaid=(23,0,0) tid=(127,0,0)
GPGPU-Sim PTX: 27900000 instructions simulated : ctaid=(11,0,0) tid=(31,0,0)
GPGPU-Sim uArch: cycles simulated: 41000  inst.: 27865056 (ipc=679.6) sim_rate=605762 (inst/sec) elapsed = 0:0:00:46 / Wed Mar  2 01:17:04 2016
GPGPU-Sim PTX: 28000000 instructions simulated : ctaid=(118,0,0) tid=(31,0,0)
GPGPU-Sim PTX: 28100000 instructions simulated : ctaid=(102,0,0) tid=(31,0,0)
GPGPU-Sim PTX: 28200000 instructions simulated : ctaid=(2,0,0) tid=(63,0,0)
GPGPU-Sim PTX: 28300000 instructions simulated : ctaid=(33,0,0) tid=(31,0,0)
GPGPU-Sim PTX: 28400000 instructions simulated : ctaid=(48,0,0) tid=(127,0,0)
GPGPU-Sim PTX: 28500000 instructions simulated : ctaid=(9,0,0) tid=(63,0,0)
GPGPU-Sim PTX: 28600000 instructions simulated : ctaid=(32,0,0) tid=(127,0,0)
GPGPU-Sim uArch: cycles simulated: 42000  inst.: 28590912 (ipc=680.7) sim_rate=608317 (inst/sec) elapsed = 0:0:00:47 / Wed Mar  2 01:17:05 2016
GPGPU-Sim PTX: 28700000 instructions simulated : ctaid=(51,0,0) tid=(31,0,0)
GPGPU-Sim PTX: 28800000 instructions simulated : ctaid=(10,0,0) tid=(31,0,0)
GPGPU-Sim PTX: 28900000 instructions simulated : ctaid=(31,0,0) tid=(31,0,0)
GPGPU-Sim PTX: 29000000 instructions simulated : ctaid=(43,0,0) tid=(31,0,0)
GPGPU-Sim PTX: 29100000 instructions simulated : ctaid=(34,0,0) tid=(63,0,0)
GPGPU-Sim PTX: 29200000 instructions simulated : ctaid=(13,0,0) tid=(95,0,0)
GPGPU-Sim PTX: 29300000 instructions simulated : ctaid=(36,0,0) tid=(127,0,0)
GPGPU-Sim uArch: cycles simulated: 43000  inst.: 29313024 (ipc=681.7) sim_rate=610688 (inst/sec) elapsed = 0:0:00:48 / Wed Mar  2 01:17:06 2016
GPGPU-Sim PTX: 29400000 instructions simulated : ctaid=(3,0,0) tid=(31,0,0)
GPGPU-Sim PTX: 29500000 instructions simulated : ctaid=(58,0,0) tid=(95,0,0)
GPGPU-Sim PTX: 29600000 instructions simulated : ctaid=(43,0,0) tid=(31,0,0)
GPGPU-Sim uArch: cycles simulated: 43500  inst.: 29661312 (ipc=681.9) sim_rate=605332 (inst/sec) elapsed = 0:0:00:49 / Wed Mar  2 01:17:07 2016
GPGPU-Sim PTX: 29700000 instructions simulated : ctaid=(18,0,0) tid=(127,0,0)
GPGPU-Sim PTX: 29800000 instructions simulated : ctaid=(46,0,0) tid=(63,0,0)
GPGPU-Sim PTX: 29900000 instructions simulated : ctaid=(17,0,0) tid=(63,0,0)
GPGPU-Sim PTX: 30000000 instructions simulated : ctaid=(21,0,0) tid=(95,0,0)
GPGPU-Sim PTX: 30100000 instructions simulated : ctaid=(7,0,0) tid=(63,0,0)
GPGPU-Sim PTX: 30200000 instructions simulated : ctaid=(16,0,0) tid=(95,0,0)
GPGPU-Sim PTX: 30300000 instructions simulated : ctaid=(65,0,0) tid=(95,0,0)
GPGPU-Sim PTX: 30400000 instructions simulated : ctaid=(52,0,0) tid=(95,0,0)
GPGPU-Sim uArch: cycles simulated: 44500  inst.: 30383008 (ipc=682.8) sim_rate=607660 (inst/sec) elapsed = 0:0:00:50 / Wed Mar  2 01:17:08 2016
GPGPU-Sim PTX: 30500000 instructions simulated : ctaid=(81,0,0) tid=(31,0,0)
GPGPU-Sim PTX: 30600000 instructions simulated : ctaid=(3,0,0) tid=(95,0,0)
GPGPU-Sim PTX: 30700000 instructions simulated : ctaid=(7,0,0) tid=(127,0,0)
GPGPU-Sim PTX: 30800000 instructions simulated : ctaid=(5,0,0) tid=(63,0,0)
GPGPU-Sim PTX: 30900000 instructions simulated : ctaid=(23,0,0) tid=(95,0,0)
GPGPU-Sim PTX: 31000000 instructions simulated : ctaid=(64,0,0) tid=(95,0,0)
GPGPU-Sim PTX: 31100000 instructions simulated : ctaid=(76,0,0) tid=(31,0,0)
GPGPU-Sim uArch: cycles simulated: 45500  inst.: 31104128 (ipc=683.6) sim_rate=609884 (inst/sec) elapsed = 0:0:00:51 / Wed Mar  2 01:17:09 2016
GPGPU-Sim PTX: 31200000 instructions simulated : ctaid=(102,0,0) tid=(127,0,0)
GPGPU-Sim PTX: 31300000 instructions simulated : ctaid=(19,0,0) tid=(63,0,0)
GPGPU-Sim PTX: 31400000 instructions simulated : ctaid=(29,0,0) tid=(31,0,0)
GPGPU-Sim PTX: 31500000 instructions simulated : ctaid=(36,0,0) tid=(31,0,0)
GPGPU-Sim uArch: cycles simulated: 46000  inst.: 31479360 (ipc=684.3) sim_rate=605372 (inst/sec) elapsed = 0:0:00:52 / Wed Mar  2 01:17:10 2016
GPGPU-Sim PTX: 31600000 instructions simulated : ctaid=(59,0,0) tid=(63,0,0)
GPGPU-Sim PTX: 31700000 instructions simulated : ctaid=(81,0,0) tid=(95,0,0)
GPGPU-Sim PTX: 31800000 instructions simulated : ctaid=(5,0,0) tid=(95,0,0)
GPGPU-Sim PTX: 31900000 instructions simulated : ctaid=(35,0,0) tid=(31,0,0)
GPGPU-Sim PTX: 32000000 instructions simulated : ctaid=(96,0,0) tid=(95,0,0)
GPGPU-Sim PTX: 32100000 instructions simulated : ctaid=(30,0,0) tid=(95,0,0)
GPGPU-Sim PTX: 32200000 instructions simulated : ctaid=(18,0,0) tid=(31,0,0)
GPGPU-Sim uArch: cycles simulated: 47000  inst.: 32214336 (ipc=685.4) sim_rate=607817 (inst/sec) elapsed = 0:0:00:53 / Wed Mar  2 01:17:11 2016
GPGPU-Sim PTX: 32300000 instructions simulated : ctaid=(22,0,0) tid=(31,0,0)
GPGPU-Sim PTX: 32400000 instructions simulated : ctaid=(8,0,0) tid=(127,0,0)
GPGPU-Sim PTX: 32500000 instructions simulated : ctaid=(76,0,0) tid=(31,0,0)
GPGPU-Sim PTX: 32600000 instructions simulated : ctaid=(81,0,0) tid=(63,0,0)
GPGPU-Sim PTX: 32700000 instructions simulated : ctaid=(40,0,0) tid=(127,0,0)
GPGPU-Sim PTX: 32800000 instructions simulated : ctaid=(45,0,0) tid=(31,0,0)
GPGPU-Sim PTX: 32900000 instructions simulated : ctaid=(70,0,0) tid=(127,0,0)
GPGPU-Sim uArch: cycles simulated: 48000  inst.: 32933952 (ipc=686.1) sim_rate=609888 (inst/sec) elapsed = 0:0:00:54 / Wed Mar  2 01:17:12 2016
GPGPU-Sim PTX: 33000000 instructions simulated : ctaid=(64,0,0) tid=(31,0,0)
GPGPU-Sim PTX: 33100000 instructions simulated : ctaid=(108,0,0) tid=(31,0,0)
GPGPU-Sim PTX: 33200000 instructions simulated : ctaid=(9,0,0) tid=(31,0,0)
GPGPU-Sim PTX: 33300000 instructions simulated : ctaid=(78,0,0) tid=(63,0,0)
GPGPU-Sim uArch: cycles simulated: 48500  inst.: 33296096 (ipc=686.5) sim_rate=605383 (inst/sec) elapsed = 0:0:00:55 / Wed Mar  2 01:17:13 2016
GPGPU-Sim PTX: 33400000 instructions simulated : ctaid=(50,0,0) tid=(127,0,0)
GPGPU-Sim PTX: 33500000 instructions simulated : ctaid=(58,0,0) tid=(63,0,0)
GPGPU-Sim PTX: 33600000 instructions simulated : ctaid=(26,0,0) tid=(127,0,0)
GPGPU-Sim PTX: 33700000 instructions simulated : ctaid=(111,0,0) tid=(31,0,0)
GPGPU-Sim PTX: 33800000 instructions simulated : ctaid=(26,0,0) tid=(31,0,0)
GPGPU-Sim PTX: 33900000 instructions simulated : ctaid=(55,0,0) tid=(95,0,0)
GPGPU-Sim PTX: 34000000 instructions simulated : ctaid=(35,0,0) tid=(31,0,0)
GPGPU-Sim uArch: cycles simulated: 49500  inst.: 34039648 (ipc=687.7) sim_rate=607850 (inst/sec) elapsed = 0:0:00:56 / Wed Mar  2 01:17:14 2016
GPGPU-Sim PTX: 34100000 instructions simulated : ctaid=(75,0,0) tid=(127,0,0)
GPGPU-Sim PTX: 34200000 instructions simulated : ctaid=(102,0,0) tid=(95,0,0)
GPGPU-Sim uArch: Shader 9 finished CTA #0 (49778,0), 7 CTAs running
GPGPU-Sim uArch: core:  9, cta: 0 initialized @(49779,0)
GPGPU-Sim uArch: Shader 3 finished CTA #0 (49786,0), 7 CTAs running
GPGPU-Sim uArch: core:  3, cta: 0 initialized @(49787,0)
GPGPU-Sim PTX: 34300000 instructions simulated : ctaid=(85,0,0) tid=(31,0,0)
GPGPU-Sim PTX: 34400000 instructions simulated : ctaid=(59,0,0) tid=(63,0,0)
GPGPU-Sim uArch: Shader 12 finished CTA #0 (50029,0), 7 CTAs running
GPGPU-Sim uArch: core: 12, cta: 0 initialized @(50030,0)
GPGPU-Sim PTX: 34500000 instructions simulated : ctaid=(33,0,0) tid=(127,0,0)
GPGPU-Sim uArch: Shader 6 finished CTA #0 (50118,0), 7 CTAs running
GPGPU-Sim uArch: core:  6, cta: 0 initialized @(50119,0)
GPGPU-Sim uArch: Shader 0 finished CTA #0 (50164,0), 7 CTAs running
GPGPU-Sim uArch: core:  0, cta: 0 initialized @(50165,0)
GPGPU-Sim PTX: 34600000 instructions simulated : ctaid=(75,0,0) tid=(31,0,0)
GPGPU-Sim PTX: 34700000 instructions simulated : ctaid=(78,0,0) tid=(95,0,0)
GPGPU-Sim uArch: Shader 9 finished CTA #1 (50446,0), 7 CTAs running
GPGPU-Sim uArch: core:  9, cta: 1 initialized @(50447,0)
GPGPU-Sim PTX: 34800000 instructions simulated : ctaid=(21,0,0) tid=(63,0,0)
GPGPU-Sim uArch: Shader 8 finished CTA #0 (50498,0), 7 CTAs running
GPGPU-Sim uArch: core:  8, cta: 0 initialized @(50499,0)
GPGPU-Sim uArch: cycles simulated: 50500  inst.: 34778944 (ipc=688.7) sim_rate=610156 (inst/sec) elapsed = 0:0:00:57 / Wed Mar  2 01:17:15 2016
GPGPU-Sim uArch: Shader 0 finished CTA #1 (50556,0), 7 CTAs running
GPGPU-Sim uArch: core:  0, cta: 1 initialized @(50557,0)
GPGPU-Sim PTX: 34900000 instructions simulated : ctaid=(54,0,0) tid=(127,0,0)
GPGPU-Sim uArch: Shader 14 finished CTA #0 (50630,0), 7 CTAs running
GPGPU-Sim uArch: core: 14, cta: 0 initialized @(50631,0)
GPGPU-Sim PTX: 35000000 instructions simulated : ctaid=(118,0,0) tid=(127,0,0)
GPGPU-Sim uArch: Shader 2 finished CTA #0 (50768,0), 7 CTAs running
GPGPU-Sim uArch: core:  2, cta: 0 initialized @(50769,0)
GPGPU-Sim uArch: Shader 5 finished CTA #0 (50827,0), 7 CTAs running
GPGPU-Sim uArch: core:  5, cta: 0 initialized @(50828,0)
GPGPU-Sim uArch: Shader 11 finished CTA #0 (50862,0), 7 CTAs running
GPGPU-Sim uArch: core: 11, cta: 0 initialized @(50863,0)
GPGPU-Sim PTX: 35100000 instructions simulated : ctaid=(82,0,0) tid=(31,0,0)
GPGPU-Sim uArch: Shader 5 finished CTA #1 (50940,0), 7 CTAs running
GPGPU-Sim uArch: core:  5, cta: 1 initialized @(50941,0)
GPGPU-Sim uArch: cycles simulated: 51000  inst.: 35156480 (ipc=689.3) sim_rate=606146 (inst/sec) elapsed = 0:0:00:58 / Wed Mar  2 01:17:16 2016
GPGPU-Sim PTX: 35200000 instructions simulated : ctaid=(84,0,0) tid=(127,0,0)
GPGPU-Sim PTX: 35300000 instructions simulated : ctaid=(18,0,0) tid=(63,0,0)
GPGPU-Sim uArch: Shader 14 finished CTA #1 (51239,0), 7 CTAs running
GPGPU-Sim uArch: core: 14, cta: 1 initialized @(51240,0)
GPGPU-Sim PTX: 35400000 instructions simulated : ctaid=(18,0,0) tid=(63,0,0)
GPGPU-Sim uArch: Shader 8 finished CTA #1 (51310,0), 7 CTAs running
GPGPU-Sim uArch: core:  8, cta: 1 initialized @(51311,0)
GPGPU-Sim PTX: 35500000 instructions simulated : ctaid=(74,0,0) tid=(31,0,0)
GPGPU-Sim uArch: Shader 1 finished CTA #0 (51522,0), 7 CTAs running
GPGPU-Sim uArch: core:  1, cta: 0 initialized @(51523,0)
GPGPU-Sim uArch: Shader 11 finished CTA #1 (51523,0), 7 CTAs running
GPGPU-Sim uArch: core: 11, cta: 1 initialized @(51524,0)
GPGPU-Sim PTX: 35600000 instructions simulated : ctaid=(111,0,0) tid=(95,0,0)
GPGPU-Sim uArch: Shader 7 finished CTA #0 (51568,0), 7 CTAs running
GPGPU-Sim uArch: core:  7, cta: 0 initialized @(51569,0)
GPGPU-Sim PTX: 35700000 instructions simulated : ctaid=(72,0,0) tid=(31,0,0)
GPGPU-Sim uArch: Shader 10 finished CTA #0 (51693,0), 7 CTAs running
GPGPU-Sim uArch: Shader 13 finished CTA #0 (51693,0), 7 CTAs running
GPGPU-Sim uArch: core: 10, cta: 0 initialized @(51694,0)
GPGPU-Sim uArch: core: 13, cta: 0 initialized @(51694,0)
GPGPU-Sim uArch: Shader 4 finished CTA #0 (51760,0), 7 CTAs running
GPGPU-Sim uArch: core:  4, cta: 0 initialized @(51761,0)
GPGPU-Sim uArch: Shader 10 finished CTA #1 (51773,0), 7 CTAs running
GPGPU-Sim uArch: core: 10, cta: 1 initialized @(51774,0)
GPGPU-Sim uArch: Shader 13 finished CTA #1 (51800,0), 7 CTAs running
GPGPU-Sim uArch: core: 13, cta: 1 initialized @(51801,0)
GPGPU-Sim PTX: 35800000 instructions simulated : ctaid=(42,0,0) tid=(63,0,0)
GPGPU-Sim uArch: Shader 7 finished CTA #1 (51896,0), 7 CTAs running
GPGPU-Sim uArch: core:  7, cta: 1 initialized @(51897,0)
GPGPU-Sim uArch: Shader 3 finished CTA #1 (51907,0), 7 CTAs running
GPGPU-Sim uArch: core:  3, cta: 1 initialized @(51908,0)
GPGPU-Sim PTX: 35900000 instructions simulated : ctaid=(90,0,0) tid=(31,0,0)
GPGPU-Sim uArch: Shader 1 finished CTA #1 (51953,0), 7 CTAs running
GPGPU-Sim uArch: core:  1, cta: 1 initialized @(51954,0)
GPGPU-Sim uArch: cycles simulated: 52000  inst.: 35898080 (ipc=690.3) sim_rate=608442 (inst/sec) elapsed = 0:0:00:59 / Wed Mar  2 01:17:17 2016
GPGPU-Sim PTX: 36000000 instructions simulated : ctaid=(144,0,0) tid=(95,0,0)
GPGPU-Sim uArch: Shader 4 finished CTA #1 (52134,0), 7 CTAs running
GPGPU-Sim uArch: core:  4, cta: 1 initialized @(52135,0)
GPGPU-Sim PTX: 36100000 instructions simulated : ctaid=(129,0,0) tid=(31,0,0)
GPGPU-Sim PTX: 36200000 instructions simulated : ctaid=(86,0,0) tid=(95,0,0)
GPGPU-Sim PTX: 36300000 instructions simulated : ctaid=(92,0,0) tid=(95,0,0)
GPGPU-Sim uArch: cycles simulated: 52500  inst.: 36254432 (ipc=690.6) sim_rate=604240 (inst/sec) elapsed = 0:0:01:00 / Wed Mar  2 01:17:18 2016
GPGPU-Sim uArch: Shader 12 finished CTA #1 (52623,0), 7 CTAs running
GPGPU-Sim uArch: core: 12, cta: 1 initialized @(52624,0)
GPGPU-Sim PTX: 36400000 instructions simulated : ctaid=(107,0,0) tid=(127,0,0)
GPGPU-Sim uArch: Shader 2 finished CTA #1 (52742,0), 7 CTAs running
GPGPU-Sim uArch: core:  2, cta: 1 initialized @(52743,0)
GPGPU-Sim PTX: 36500000 instructions simulated : ctaid=(143,0,0) tid=(95,0,0)
GPGPU-Sim PTX: 36600000 instructions simulated : ctaid=(120,0,0) tid=(63,0,0)
GPGPU-Sim PTX: 36700000 instructions simulated : ctaid=(61,0,0) tid=(95,0,0)
GPGPU-Sim uArch: Shader 6 finished CTA #1 (53083,0), 7 CTAs running
GPGPU-Sim uArch: core:  6, cta: 1 initialized @(53084,0)
GPGPU-Sim PTX: 36800000 instructions simulated : ctaid=(74,0,0) tid=(95,0,0)
GPGPU-Sim PTX: 36900000 instructions simulated : ctaid=(122,0,0) tid=(31,0,0)
GPGPU-Sim PTX: 37000000 instructions simulated : ctaid=(69,0,0) tid=(63,0,0)
GPGPU-Sim uArch: cycles simulated: 53500  inst.: 36951040 (ipc=690.7) sim_rate=605754 (inst/sec) elapsed = 0:0:01:01 / Wed Mar  2 01:17:19 2016
GPGPU-Sim PTX: 37100000 instructions simulated : ctaid=(44,0,0) tid=(63,0,0)
GPGPU-Sim uArch: Shader 2 finished CTA #2 (53669,0), 7 CTAs running
GPGPU-Sim uArch: core:  2, cta: 2 initialized @(53670,0)
GPGPU-Sim PTX: 37200000 instructions simulated : ctaid=(130,0,0) tid=(63,0,0)
GPGPU-Sim PTX: 37300000 instructions simulated : ctaid=(81,0,0) tid=(31,0,0)
GPGPU-Sim uArch: Shader 13 finished CTA #2 (53920,0), 7 CTAs running
GPGPU-Sim uArch: core: 13, cta: 2 initialized @(53921,0)
GPGPU-Sim uArch: Shader 1 finished CTA #2 (53931,0), 7 CTAs running
GPGPU-Sim uArch: core:  1, cta: 2 initialized @(53932,0)
GPGPU-Sim uArch: Shader 7 finished CTA #2 (53970,0), 7 CTAs running
GPGPU-Sim uArch: core:  7, cta: 2 initialized @(53971,0)
GPGPU-Sim uArch: cycles simulated: 54000  inst.: 37313536 (ipc=691.0) sim_rate=601831 (inst/sec) elapsed = 0:0:01:02 / Wed Mar  2 01:17:20 2016
GPGPU-Sim uArch: Shader 5 finished CTA #2 (54012,0), 7 CTAs running
GPGPU-Sim uArch: core:  5, cta: 2 initialized @(54013,0)
GPGPU-Sim PTX: 37400000 instructions simulated : ctaid=(103,0,0) tid=(31,0,0)
GPGPU-Sim uArch: Shader 10 finished CTA #2 (54075,0), 7 CTAs running
GPGPU-Sim uArch: core: 10, cta: 2 initialized @(54076,0)
GPGPU-Sim PTX: 37500000 instructions simulated : ctaid=(104,0,0) tid=(31,0,0)
GPGPU-Sim uArch: Shader 9 finished CTA #2 (54251,0), 7 CTAs running
GPGPU-Sim uArch: core:  9, cta: 2 initialized @(54252,0)
GPGPU-Sim PTX: 37600000 instructions simulated : ctaid=(102,0,0) tid=(31,0,0)
GPGPU-Sim uArch: Shader 0 finished CTA #2 (54393,0), 7 CTAs running
GPGPU-Sim uArch: core:  0, cta: 2 initialized @(54394,0)
GPGPU-Sim PTX: 37700000 instructions simulated : ctaid=(154,0,0) tid=(63,0,0)
GPGPU-Sim PTX: 37800000 instructions simulated : ctaid=(64,0,0) tid=(95,0,0)
GPGPU-Sim PTX: 37900000 instructions simulated : ctaid=(104,0,0) tid=(95,0,0)
GPGPU-Sim uArch: Shader 12 finished CTA #2 (54803,0), 7 CTAs running
GPGPU-Sim uArch: core: 12, cta: 2 initialized @(54804,0)
GPGPU-Sim PTX: 38000000 instructions simulated : ctaid=(134,0,0) tid=(95,0,0)
GPGPU-Sim uArch: Shader 6 finished CTA #2 (54916,0), 7 CTAs running
GPGPU-Sim uArch: core:  6, cta: 2 initialized @(54917,0)
GPGPU-Sim uArch: Shader 4 finished CTA #2 (54986,0), 7 CTAs running
GPGPU-Sim uArch: core:  4, cta: 2 initialized @(54987,0)
GPGPU-Sim uArch: cycles simulated: 55000  inst.: 38040256 (ipc=691.6) sim_rate=603813 (inst/sec) elapsed = 0:0:01:03 / Wed Mar  2 01:17:21 2016
GPGPU-Sim PTX: 38100000 instructions simulated : ctaid=(121,0,0) tid=(63,0,0)
GPGPU-Sim uArch: Shader 8 finished CTA #2 (55034,0), 7 CTAs running
GPGPU-Sim uArch: core:  8, cta: 2 initialized @(55035,0)
GPGPU-Sim uArch: Shader 14 finished CTA #2 (55105,0), 7 CTAs running
GPGPU-Sim uArch: core: 14, cta: 2 initialized @(55106,0)
GPGPU-Sim PTX: 38200000 instructions simulated : ctaid=(117,0,0) tid=(63,0,0)
GPGPU-Sim uArch: Shader 3 finished CTA #2 (55263,0), 7 CTAs running
GPGPU-Sim uArch: core:  3, cta: 2 initialized @(55264,0)
GPGPU-Sim PTX: 38300000 instructions simulated : ctaid=(60,0,0) tid=(95,0,0)
GPGPU-Sim PTX: 38400000 instructions simulated : ctaid=(86,0,0) tid=(95,0,0)
GPGPU-Sim uArch: cycles simulated: 55500  inst.: 38408576 (ipc=692.0) sim_rate=600134 (inst/sec) elapsed = 0:0:01:04 / Wed Mar  2 01:17:22 2016
GPGPU-Sim PTX: 38500000 instructions simulated : ctaid=(102,0,0) tid=(31,0,0)
GPGPU-Sim PTX: 38600000 instructions simulated : ctaid=(96,0,0) tid=(31,0,0)
GPGPU-Sim PTX: 38700000 instructions simulated : ctaid=(102,0,0) tid=(31,0,0)
GPGPU-Sim PTX: 38800000 instructions simulated : ctaid=(154,0,0) tid=(31,0,0)
GPGPU-Sim PTX: 38900000 instructions simulated : ctaid=(104,0,0) tid=(95,0,0)
GPGPU-Sim uArch: Shader 11 finished CTA #2 (56192,0), 7 CTAs running
GPGPU-Sim uArch: core: 11, cta: 2 initialized @(56193,0)
GPGPU-Sim PTX: 39000000 instructions simulated : ctaid=(85,0,0) tid=(63,0,0)
GPGPU-Sim PTX: 39100000 instructions simulated : ctaid=(52,0,0) tid=(63,0,0)
GPGPU-Sim uArch: cycles simulated: 56500  inst.: 39131616 (ipc=692.6) sim_rate=602024 (inst/sec) elapsed = 0:0:01:05 / Wed Mar  2 01:17:23 2016
GPGPU-Sim PTX: 39200000 instructions simulated : ctaid=(136,0,0) tid=(95,0,0)
GPGPU-Sim PTX: 39300000 instructions simulated : ctaid=(121,0,0) tid=(31,0,0)
GPGPU-Sim PTX: 39400000 instructions simulated : ctaid=(88,0,0) tid=(31,0,0)
GPGPU-Sim PTX: 39500000 instructions simulated : ctaid=(97,0,0) tid=(95,0,0)
GPGPU-Sim PTX: 39600000 instructions simulated : ctaid=(162,0,0) tid=(31,0,0)
GPGPU-Sim PTX: 39700000 instructions simulated : ctaid=(93,0,0) tid=(31,0,0)
GPGPU-Sim PTX: 39800000 instructions simulated : ctaid=(122,0,0) tid=(63,0,0)
GPGPU-Sim PTX: 39900000 instructions simulated : ctaid=(78,0,0) tid=(63,0,0)
GPGPU-Sim uArch: cycles simulated: 57500  inst.: 39854560 (ipc=693.1) sim_rate=603856 (inst/sec) elapsed = 0:0:01:06 / Wed Mar  2 01:17:24 2016
GPGPU-Sim PTX: 40000000 instructions simulated : ctaid=(129,0,0) tid=(31,0,0)
GPGPU-Sim PTX: 40100000 instructions simulated : ctaid=(135,0,0) tid=(95,0,0)
GPGPU-Sim PTX: 40200000 instructions simulated : ctaid=(102,0,0) tid=(63,0,0)
GPGPU-Sim uArch: cycles simulated: 58000  inst.: 40213856 (ipc=693.3) sim_rate=600206 (inst/sec) elapsed = 0:0:01:07 / Wed Mar  2 01:17:25 2016
GPGPU-Sim PTX: 40300000 instructions simulated : ctaid=(114,0,0) tid=(63,0,0)
GPGPU-Sim PTX: 40400000 instructions simulated : ctaid=(75,0,0) tid=(95,0,0)
GPGPU-Sim PTX: 40500000 instructions simulated : ctaid=(99,0,0) tid=(31,0,0)
GPGPU-Sim PTX: 40600000 instructions simulated : ctaid=(88,0,0) tid=(31,0,0)
GPGPU-Sim PTX: 40700000 instructions simulated : ctaid=(139,0,0) tid=(63,0,0)
GPGPU-Sim PTX: 40800000 instructions simulated : ctaid=(128,0,0) tid=(31,0,0)
GPGPU-Sim PTX: 40900000 instructions simulated : ctaid=(83,0,0) tid=(31,0,0)
GPGPU-Sim uArch: cycles simulated: 59000  inst.: 40929920 (ipc=693.7) sim_rate=601910 (inst/sec) elapsed = 0:0:01:08 / Wed Mar  2 01:17:26 2016
GPGPU-Sim PTX: 41000000 instructions simulated : ctaid=(82,0,0) tid=(127,0,0)
GPGPU-Sim PTX: 41100000 instructions simulated : ctaid=(103,0,0) tid=(31,0,0)
GPGPU-Sim PTX: 41200000 instructions simulated : ctaid=(148,0,0) tid=(31,0,0)
GPGPU-Sim PTX: 41300000 instructions simulated : ctaid=(51,0,0) tid=(127,0,0)
GPGPU-Sim uArch: cycles simulated: 59500  inst.: 41287904 (ipc=693.9) sim_rate=598375 (inst/sec) elapsed = 0:0:01:09 / Wed Mar  2 01:17:27 2016
GPGPU-Sim PTX: 41400000 instructions simulated : ctaid=(131,0,0) tid=(63,0,0)
GPGPU-Sim PTX: 41500000 instructions simulated : ctaid=(113,0,0) tid=(127,0,0)
GPGPU-Sim PTX: 41600000 instructions simulated : ctaid=(95,0,0) tid=(31,0,0)
GPGPU-Sim PTX: 41700000 instructions simulated : ctaid=(52,0,0) tid=(127,0,0)
GPGPU-Sim PTX: 41800000 instructions simulated : ctaid=(83,0,0) tid=(95,0,0)
GPGPU-Sim PTX: 41900000 instructions simulated : ctaid=(119,0,0) tid=(31,0,0)
GPGPU-Sim PTX: 42000000 instructions simulated : ctaid=(126,0,0) tid=(31,0,0)
GPGPU-Sim uArch: Shader 10 finished CTA #3 (60470,0), 7 CTAs running
GPGPU-Sim uArch: core: 10, cta: 3 initialized @(60471,0)
GPGPU-Sim uArch: cycles simulated: 60500  inst.: 42008992 (ipc=694.4) sim_rate=600128 (inst/sec) elapsed = 0:0:01:10 / Wed Mar  2 01:17:28 2016
GPGPU-Sim PTX: 42100000 instructions simulated : ctaid=(49,0,0) tid=(127,0,0)
GPGPU-Sim PTX: 42200000 instructions simulated : ctaid=(82,0,0) tid=(31,0,0)
GPGPU-Sim PTX: 42300000 instructions simulated : ctaid=(106,0,0) tid=(31,0,0)
GPGPU-Sim PTX: 42400000 instructions simulated : ctaid=(159,0,0) tid=(63,0,0)
GPGPU-Sim uArch: cycles simulated: 61000  inst.: 42372640 (ipc=694.6) sim_rate=596797 (inst/sec) elapsed = 0:0:01:11 / Wed Mar  2 01:17:29 2016
GPGPU-Sim uArch: Shader 14 finished CTA #3 (61036,0), 7 CTAs running
GPGPU-Sim uArch: core: 14, cta: 3 initialized @(61037,0)
GPGPU-Sim PTX: 42500000 instructions simulated : ctaid=(107,0,0) tid=(31,0,0)
GPGPU-Sim PTX: 42600000 instructions simulated : ctaid=(155,0,0) tid=(63,0,0)
GPGPU-Sim uArch: Shader 5 finished CTA #3 (61280,0), 7 CTAs running
GPGPU-Sim uArch: core:  5, cta: 3 initialized @(61281,0)
GPGPU-Sim PTX: 42700000 instructions simulated : ctaid=(71,0,0) tid=(127,0,0)
GPGPU-Sim PTX: 42800000 instructions simulated : ctaid=(120,0,0) tid=(31,0,0)
GPGPU-Sim uArch: Shader 6 finished CTA #3 (61569,0), 7 CTAs running
GPGPU-Sim uArch: core:  6, cta: 3 initialized @(61570,0)
GPGPU-Sim uArch: Shader 1 finished CTA #3 (61642,0), 7 CTAs running
GPGPU-Sim uArch: core:  1, cta: 3 initialized @(61643,0)
GPGPU-Sim PTX: 42900000 instructions simulated : ctaid=(148,0,0) tid=(63,0,0)
GPGPU-Sim PTX: 43000000 instructions simulated : ctaid=(62,0,0) tid=(127,0,0)
GPGPU-Sim uArch: Shader 4 finished CTA #3 (61908,0), 7 CTAs running
GPGPU-Sim uArch: core:  4, cta: 3 initialized @(61909,0)
GPGPU-Sim PTX: 43100000 instructions simulated : ctaid=(136,0,0) tid=(63,0,0)
GPGPU-Sim uArch: cycles simulated: 62000  inst.: 43090112 (ipc=695.0) sim_rate=598473 (inst/sec) elapsed = 0:0:01:12 / Wed Mar  2 01:17:30 2016
GPGPU-Sim PTX: 43200000 instructions simulated : ctaid=(150,0,0) tid=(127,0,0)
GPGPU-Sim uArch: Shader 8 finished CTA #3 (62166,0), 7 CTAs running
GPGPU-Sim uArch: core:  8, cta: 3 initialized @(62167,0)
GPGPU-Sim PTX: 43300000 instructions simulated : ctaid=(80,0,0) tid=(95,0,0)
GPGPU-Sim uArch: Shader 9 finished CTA #3 (62285,0), 7 CTAs running
GPGPU-Sim uArch: core:  9, cta: 3 initialized @(62286,0)
GPGPU-Sim PTX: 43400000 instructions simulated : ctaid=(92,0,0) tid=(63,0,0)
GPGPU-Sim PTX: 43500000 instructions simulated : ctaid=(63,0,0) tid=(63,0,0)
GPGPU-Sim uArch: cycles simulated: 62500  inst.: 43455584 (ipc=695.3) sim_rate=595281 (inst/sec) elapsed = 0:0:01:13 / Wed Mar  2 01:17:31 2016
GPGPU-Sim uArch: Shader 11 finished CTA #3 (62581,0), 7 CTAs running
GPGPU-Sim uArch: core: 11, cta: 3 initialized @(62582,0)
GPGPU-Sim PTX: 43600000 instructions simulated : ctaid=(104,0,0) tid=(127,0,0)
GPGPU-Sim PTX: 43700000 instructions simulated : ctaid=(157,0,0) tid=(31,0,0)
GPGPU-Sim uArch: Shader 13 finished CTA #3 (62799,0), 7 CTAs running
GPGPU-Sim uArch: core: 13, cta: 3 initialized @(62800,0)
GPGPU-Sim PTX: 43800000 instructions simulated : ctaid=(165,0,0) tid=(95,0,0)
GPGPU-Sim PTX: 43900000 instructions simulated : ctaid=(95,0,0) tid=(31,0,0)
GPGPU-Sim PTX: 44000000 instructions simulated : ctaid=(138,0,0) tid=(63,0,0)
GPGPU-Sim uArch: Shader 3 finished CTA #3 (63247,0), 7 CTAs running
GPGPU-Sim uArch: core:  3, cta: 3 initialized @(63248,0)
GPGPU-Sim uArch: Shader 7 finished CTA #3 (63261,0), 7 CTAs running
GPGPU-Sim uArch: core:  7, cta: 3 initialized @(63262,0)
GPGPU-Sim PTX: 44100000 instructions simulated : ctaid=(110,0,0) tid=(95,0,0)
GPGPU-Sim uArch: Shader 12 finished CTA #3 (63390,0), 7 CTAs running
GPGPU-Sim uArch: core: 12, cta: 3 initialized @(63391,0)
GPGPU-Sim PTX: 44200000 instructions simulated : ctaid=(121,0,0) tid=(95,0,0)
GPGPU-Sim uArch: cycles simulated: 63500  inst.: 44188608 (ipc=695.9) sim_rate=597143 (inst/sec) elapsed = 0:0:01:14 / Wed Mar  2 01:17:32 2016
GPGPU-Sim PTX: 44300000 instructions simulated : ctaid=(104,0,0) tid=(31,0,0)
GPGPU-Sim uArch: Shader 0 finished CTA #3 (63622,0), 7 CTAs running
GPGPU-Sim uArch: core:  0, cta: 3 initialized @(63623,0)
GPGPU-Sim PTX: 44400000 instructions simulated : ctaid=(119,0,0) tid=(127,0,0)
GPGPU-Sim PTX: 44500000 instructions simulated : ctaid=(142,0,0) tid=(31,0,0)
GPGPU-Sim PTX: 44600000 instructions simulated : ctaid=(89,0,0) tid=(95,0,0)
GPGPU-Sim uArch: cycles simulated: 64000  inst.: 44556512 (ipc=696.2) sim_rate=594086 (inst/sec) elapsed = 0:0:01:15 / Wed Mar  2 01:17:33 2016
GPGPU-Sim PTX: 44700000 instructions simulated : ctaid=(124,0,0) tid=(63,0,0)
GPGPU-Sim PTX: 44800000 instructions simulated : ctaid=(153,0,0) tid=(95,0,0)
GPGPU-Sim PTX: 44900000 instructions simulated : ctaid=(83,0,0) tid=(127,0,0)
[...]
max_icnt2sh_latency = 284176 
mrq_lat_table:126703 	7510 	7718 	19280 	56200 	82739 	87427 	44601 	5275 	56 	0 	0 	0 	0 	0 	0 	0 	0 	0 	0 	0 	0 	0 	0 	0 	0 	0 	0 	0 	0 	0 	0 	
dq_lat_table:0 	0 	0 	0 	0 	0 	0 	0 	0 	0 	0 	0 	0 	0 	0 	0 	0 	0 	0 	0 	0 	0 	0 	0 	0 	0 	0 	0 	0 	0 	0 	0 	
mf_lat_table:0 	0 	0 	0 	0 	0 	0 	421 	238455 	73595 	44 	0 	0 	0 	0 	0 	0 	0 	0 	0 	0 	0 	0 	0 	0 	0 	0 	0 	0 	0 	0 	0 	
icnt2mem_lat_table:0 	0 	0 	166016 	67691 	24733 	30864 	20245 	3077 	9 	0 	0 	0 	0 	0 	0 	0 	0 	0 	0 	0 	0 	0 	0 	
icnt2sh_lat_table:0 	0 	0 	105183 	76869 	5416 	47 	0 	0 	0 	0 	106 	1933 	3763 	7654 	15164 	30223 	60805 	5352 	0 	0 	0 	0 	0 	
mf_lat_pw_table:0 	0 	0 	0 	0 	0 	0 	0 	462 	104 	0 	0 	0 	0 	0 	0 	0 	0 	0 	0 	0 	0 	0 	0 	0 	0 	0 	0 	0 	0 	0 	0 	
maximum concurrent accesses to same row:
dram[0]:        32        32        22        28        22        28        38        32        24        28        34        28        32        30        22        28 
dram[1]:        29        31        20        14        24        20        34        32        20        12        28        26        32        30        20        18 
dram[2]:        32        31        18        26        21        26        34        34        20        28        32        32        32        30        18        22 
dram[3]:        31        31        14        14        22        28        34        34        12        16        32        28        32        30        18        16 
dram[4]:        32        32        20        20        21        24        34        38        20        18        29        32        30        30        20        22 
dram[5]:        31        32        14        18        22        22        32        32        12        18        28        34        30        30        12        22 
maximum service time to same row:
dram[0]:      3178      3126      3576      3726      4458      3124      2541      2732      5318      4008      2353      2661      2760      2787      5777      4724 
dram[1]:      2137      3055      3691      3631      3922      2628      2556      2556      4878      3753      2388      2368      2629      2868      5450      4616 
dram[2]:      1789      3176      3518      3786      4093      2497      2523      2526      4178      3991      2563      2277      2583      3006      4658      4659 
dram[3]:      2083      3124      3581      3484      4046      3806      2607      2528      4094      3985      2358      2347      2683      2491      4644      4698 
dram[4]:      3328      3401      4080      3960      2547      2630      2578      2569      4207      4576      2559      2550      2778      2843      4641      4835 
dram[5]:      3300      3232      3732      3600      2557      2506      2587      2570      4368      4086      2503      2452      2638      2569      4621      4666 
average row accesses per activate:
dram[0]:  1.635544  1.642029  1.600568  1.612580  1.620887  1.620307  1.653777  1.672515  1.600560  1.600560  1.625577  1.638382  1.623271  1.633119  1.613540  1.607306 
dram[1]:  1.584906  1.606523  1.582603  1.580385  1.595213  1.589060  1.617533  1.633702  1.583391  1.582843  1.603926  1.598882  1.607871  1.612403  1.584488  1.594425 
dram[2]:  1.628141  1.633742  1.602842  1.607983  1.636101  1.626973  1.654973  1.654973  1.599441  1.587786  1.663395  1.628470  1.633119  1.644860  1.622695  1.605614 
dram[3]:  1.588235  1.587391  1.584826  1.578726  1.585724  1.598309  1.623271  1.614109  1.592206  1.582843  1.596650  1.600000  1.619250  1.600000  1.591652  1.576300 
dram[4]:  1.644541  1.631977  1.596603  1.607410  1.615686  1.614235  1.645451  1.648415  1.590546  1.612971  1.631373  1.656171  1.614679  1.636624  1.608436  1.612403 
dram[5]:  1.596479  1.599718  1.561246  1.600000  1.595775  1.598872  1.603364  1.617533  1.571429  1.590546  1.591099  1.614679  1.592760  1.619823  1.576844  1.606178 
average row locality = 437509/271700 = 1.610265
number of total memory accesses made:
dram[0]:         0         0         0         0         0         0         0         0         0         0         0         0         0         0         0         0 
dram[1]:         0         0         0         0         0         0         0         0         0         0         0         0         0         0         0         0 
dram[2]:         0         0         0         0         0         0         0         0         0         0         0         0         0         0         0         0 
dram[3]:         0         0         0         0         0         0         0         0         0         0         0         0         0         0         0         0 
dram[4]:         0         0         0         0         0         0         0         0         0         0         0         0         0         0         0         0 
dram[5]:         0         0         0         0         0         0         0         0         0         0         0         0         0         0         0         0 
total accesses: 0
min_bank_accesses = 0!
min_chip_accesses = 0!
number of total read accesses:
dram[0]:      3251      3246      3232      3232      3242      3242      3264      3264      3264      3264      3264      3264      3264      3264      3264      3264 
dram[1]:      3250      3246      3232      3232      3242      3242      3264      3264      3264      3264      3264      3264      3264      3264      3264      3264 
dram[2]:      3250      3246      3232      3232      3242      3244      3264      3264      3264      3264      3264      3264      3264      3264      3264      3264 
dram[3]:      3250      3246      3232      3232      3242      3244      3264      3264      3264      3264      3264      3264      3264      3264      3264      3264 
dram[4]:      3248      3246      3232      3232      3242      3244      3264      3264      3264      3264      3264      3264      3264      3264      3264      3264 
dram[5]:      3248      3246      3232      3232      3242      3244      3264      3264      3264      3264      3264      3264      3264      3264      3264      3264 
total reads: 312509
bank skew: 3264/3232 = 1.01
chip skew: 52086/52084 = 1.00
number of total write accesses:
dram[0]:      1286      1286      1280      1280      1290      1290      1312      1312      1312      1312      1312      1312      1312      1312      1312      1312 
dram[1]:      1286      1286      1280      1280      1290      1290      1312      1312      1312      1312      1312      1312      1312      1312      1312      1312 
dram[2]:      1286      1286      1280      1280      1290      1292      1312      1312      1312      1312      1312      1312      1312      1312      1312      1312 
dram[3]:      1286      1286      1280      1280      1290      1292      1312      1312      1312      1312      1312      1312      1312      1312      1312      1312 
dram[4]:      1286      1286      1280      1280      1290      1292      1312      1312      1312      1312      1312      1312      1312      1312      1312      1312 
dram[5]:      1286      1286      1280      1280      1290      1292      1312      1312      1312      1312      1312      1312      1312      1312      1312      1312 
total reads: 125000
bank skew: 1312/1280 = 1.02
chip skew: 20834/20832 = 1.00
average mf latency per bank:
dram[0]:        302       301       303       302       307       305       306       311       298       301       303       304       305       310       311       311
dram[1]:        308       307       314       310       316       316       316       318       312       311       311       311       322       315       320       318
dram[2]:        297       300       301       303       303       304       303       310       292       298       303       299       302       307       304       312
dram[3]:        305       312       311       321       313       317       315       319       308       317       314       311       313       322       319       322
dram[4]:        308       299       305       304       308       302       311       311       302       298       306       305       308       308       311       308
dram[5]:        307       306       310       318       313       318       314       321       308       314       305       311       315       320       318       325
maximum mf latency per bank:
dram[0]:        922       929       968       995       909       941       909      1048       921      1033       971      1029       966      1003       941       916
dram[1]:       1074      1015       964      1096       962      1135       964      1065      1042      1085       978      1048      1138      1010      1111      1184
dram[2]:        866       806       894       900       845       903       867       906       864      1108      1007       935       954       894       835       943
dram[3]:        871       944       964       946      1015      1075       926       958       870       937       997       978       968      1035       958      1016
dram[4]:       1129      1010       871      1062       993       877       962       960       907       879       997      1024      1066       976      1124       965
dram[5]:       1128       906       866      1007       934      1000       906       983       901      1012       997       985       997       926       996       970

Number of Memory Banks Accessed per Memory Operation per Warp (from 0):
0	0	0	0	0	0	0	0	0	0	0	0	0	0	0	0	0	0	0	0	0	0	0	0	0	0	0	0	0	0	0	0	0	0	0	0	0	0	0	0	0	0	0	0	0	0	0	0	0	0	0	0	0	0	0	0	0	0	0	0	0	0	0	0	0	0	0	0	0	0	0	0	0	0	0	0	0	0	0	0	0	0	0	0	0	0	0	0	0	0	0	0	0	0	0	0	
Average # of Memory Banks Accessed per Memory Operation per Warp=-nan

position of mrq chosen
0	0	0	0	0	0	0	0	0	0	0	0	0	0	0	0	

average position of mrq chosen = -nan
Memory Partition 0: 
Cache L2_bank_000:
MSHR contents

Cache L2_bank_001:
MSHR contents

In Dram Latency Queue (total = 0): 
DRAM[0]: 16 bks, busW=4 BL=16 CL=12, tRRD=2 tCCD=6, tRCD=12 tRAS=28 tRP=12 tRC=40
n_cmd=375113 n_nop=212458 n_act=44877 n_pre=44861 n_req=72917 n_rd=52085 n_write=20832 bw_util=0.7775
n_activity=364799 dram_eff=0.7995
bk0: 3251a 183149i bk1: 3246a 181880i bk2: 3232a 177417i bk3: 3232a 173839i bk4: 3242a 169724i bk5: 3242a 168117i bk6: 3264a 166863i bk7: 3264a 165047i bk8: 3264a 176880i bk9: 3264a 173457i bk10: 3264a 177687i bk11: 3264a 170988i bk12: 3264a 166495i bk13: 3264a 162523i bk14: 3264a 160430i bk15: 3264a 155573i 
dram_util_bins: 0 0 0 0 0 0 0 0 0 0
dram_eff_bins: 0 0 0 0 0 0 0 0 0 0
mrqq: max=16 avg=13.3529
Memory Partition 1: 
Cache L2_bank_002:
MSHR contents

Cache L2_bank_003:
MSHR contents

In Dram Latency Queue (total = 0): 
DRAM[1]: 16 bks, busW=4 BL=16 CL=12, tRRD=2 tCCD=6, tRCD=12 tRAS=28 tRP=12 tRC=40
n_cmd=375113 n_nop=210913 n_act=45650 n_pre=45634 n_req=72916 n_rd=52084 n_write=20832 bw_util=0.7775
n_activity=366307 dram_eff=0.7962
bk0: 3250a 185046i bk1: 3246a 180826i bk2: 3232a 177235i bk3: 3232a 170409i bk4: 3242a 169232i bk5: 3242a 169690i bk6: 3264a 166099i bk7: 3264a 163556i bk8: 3264a 179631i bk9: 3264a 174778i bk10: 3264a 174508i bk11: 3264a 173554i bk12: 3264a 163517i bk13: 3264a 166787i bk14: 3264a 159947i bk15: 3264a 161921i 
dram_util_bins: 0 0 0 0 0 0 0 0 0 0
dram_eff_bins: 0 0 0 0 0 0 0 0 0 0
mrqq: max=16 avg=12.6648
Memory Partition 2: 
Cache L2_bank_004:
MSHR contents

Cache L2_bank_005:
MSHR contents

In Dram Latency Queue (total = 0): 
DRAM[2]: 16 bks, busW=4 BL=16 CL=12, tRRD=2 tCCD=6, tRCD=12 tRAS=28 tRP=12 tRC=40
n_cmd=375113 n_nop=212555 n_act=44827 n_pre=44811 n_req=72920 n_rd=52086 n_write=20834 bw_util=0.7776
n_activity=364863 dram_eff=0.7994
bk0: 3250a 187464i bk1: 3246a 184013i bk2: 3232a 176185i bk3: 3232a 173547i bk4: 3242a 173918i bk5: 3244a 168613i bk6: 3264a 167364i bk7: 3264a 164955i bk8: 3264a 181664i bk9: 3264a 175851i bk10: 3264a 178065i bk11: 3264a 174674i bk12: 3264a 169406i bk13: 3264a 166888i bk14: 3264a 164350i bk15: 3264a 155904i 
dram_util_bins: 0 0 0 0 0 0 0 0 0 0
dram_eff_bins: 0 0 0 0 0 0 0 0 0 0
mrqq: max=16 avg=13.1998
Memory Partition 3: 
Cache L2_bank_006:
MSHR contents

Cache L2_bank_007:
MSHR contents

In Dram Latency Queue (total = 0): 
DRAM[3]: 16 bks, busW=4 BL=16 CL=12, tRRD=2 tCCD=6, tRCD=12 tRAS=28 tRP=12 tRC=40
n_cmd=375113 n_nop=210767 n_act=45721 n_pre=45705 n_req=72920 n_rd=52086 n_write=20834 bw_util=0.7776
n_activity=367336 dram_eff=0.794
bk0: 3250a 178821i bk1: 3246a 176790i bk2: 3232a 176052i bk3: 3232a 166624i bk4: 3242a 167923i bk5: 3244a 165891i bk6: 3264a 160970i bk7: 3264a 160204i bk8: 3264a 177106i bk9: 3264a 169231i bk10: 3264a 172272i bk11: 3264a 170666i bk12: 3264a 167199i bk13: 3264a 162826i bk14: 3264a 157876i bk15: 3264a 153118i 
dram_util_bins: 0 0 0 0 0 0 0 0 0 0
dram_eff_bins: 0 0 0 0 0 0 0 0 0 0
mrqq: max=16 avg=13.1421
Memory Partition 4: 
Cache L2_bank_008:
MSHR contents

Cache L2_bank_009:
MSHR contents

In Dram Latency Queue (total = 0): 
DRAM[4]: 16 bks, busW=4 BL=16 CL=12, tRRD=2 tCCD=6, tRCD=12 tRAS=28 tRP=12 tRC=40
n_cmd=375113 n_nop=212343 n_act=44934 n_pre=44918 n_req=72918 n_rd=52084 n_write=20834 bw_util=0.7776
n_activity=365168 dram_eff=0.7987
bk0: 3248a 183843i bk1: 3246a 179102i bk2: 3232a 174129i bk3: 3232a 171912i bk4: 3242a 170744i bk5: 3244a 167748i bk6: 3264a 163959i bk7: 3264a 161473i bk8: 3264a 178305i bk9: 3264a 174434i bk10: 3264a 175487i bk11: 3264a 172139i bk12: 3264a 168997i bk13: 3264a 165118i bk14: 3264a 161340i bk15: 3264a 157590i 
dram_util_bins: 0 0 0 0 0 0 0 0 0 0
dram_eff_bins: 0 0 0 0 0 0 0 0 0 0
mrqq: max=16 avg=13.2617
Memory Partition 5: 
Cache L2_bank_010:
MSHR contents
MSHR: tag=0x80f20180, atomic=0 1 entries : 0x7fe96ff06ec0 :  mf: uid=3874752, sid02:w31, part=5, addr=0x80f20180, load , size=128, unknown  status = IN_PARTITION_DRAM (284173), 

Cache L2_bank_011:
MSHR contents

In Dram Latency Queue (total = 0): 
DRAM[5]: 16 bks, busW=4 BL=16 CL=12, tRRD=2 tCCD=6, tRCD=12 tRAS=28 tRP=12 tRC=40
n_cmd=375113 n_nop=210829 n_act=45691 n_pre=45675 n_req=72918 n_rd=52084 n_write=20834 bw_util=0.7776
n_activity=367191 dram_eff=0.7943
bk0: 3248a 184114i bk1: 3246a 179352i bk2: 3232a 170364i bk3: 3232a 170421i bk4: 3242a 169288i bk5: 3244a 165216i bk6: 3264a 164438i bk7: 3264a 160026i bk8: 3264a 175992i bk9: 3264a 173432i bk10: 3264a 175941i bk11: 3264a 170657i bk12: 3264a 164623i bk13: 3264a 161821i bk14: 3264a 160701i bk15: 3264a 155992i 
dram_util_bins: 0 0 0 0 0 0 0 0 0 0
dram_eff_bins: 0 0 0 0 0 0 0 0 0 0
mrqq: max=16 avg=13.1235

========= L2 cache stats =========
L2_cache_bank[0]: Access = 26087, Miss = 26045, Miss_rate = 0.998, Pending_hits = 9, Reservation_fails = 18021
L2_cache_bank[1]: Access = 26040, Miss = 26040, Miss_rate = 1.000, Pending_hits = 0, Reservation_fails = 23656
L2_cache_bank[2]: Access = 26072, Miss = 26044, Miss_rate = 0.999, Pending_hits = 6, Reservation_fails = 21894
L2_cache_bank[3]: Access = 26040, Miss = 26040, Miss_rate = 1.000, Pending_hits = 0, Reservation_fails = 26849
L2_cache_bank[4]: Access = 26072, Miss = 26044, Miss_rate = 0.999, Pending_hits = 6, Reservation_fails = 17694
L2_cache_bank[5]: Access = 26042, Miss = 26042, Miss_rate = 1.000, Pending_hits = 0, Reservation_fails = 24733
L2_cache_bank[6]: Access = 26072, Miss = 26044, Miss_rate = 0.999, Pending_hits = 6, Reservation_fails = 24329
L2_cache_bank[7]: Access = 26042, Miss = 26042, Miss_rate = 1.000, Pending_hits = 0, Reservation_fails = 25600
L2_cache_bank[8]: Access = 26042, Miss = 26042, Miss_rate = 1.000, Pending_hits = 0, Reservation_fails = 18122
L2_cache_bank[9]: Access = 26042, Miss = 26042, Miss_rate = 1.000, Pending_hits = 0, Reservation_fails = 21775
L2_cache_bank[10]: Access = 26042, Miss = 26042, Miss_rate = 1.000, Pending_hits = 0, Reservation_fails = 23739
L2_cache_bank[11]: Access = 26042, Miss = 26042, Miss_rate = 1.000, Pending_hits = 0, Reservation_fails = 33064
L2_total_cache_accesses = 312635
L2_total_cache_misses = 312509
L2_total_cache_miss_rate = 0.9996
L2_total_cache_pending_hits = 27
L2_total_cache_reservation_fails = 279476
L2_total_cache_breakdown:
	L2_cache_stats_breakdown[GLOBAL_ACC_R][MISS] = 187500
	L2_cache_stats_breakdown[GLOBAL_ACC_R][RESERVATION_FAIL] = 169894
	L2_cache_stats_breakdown[CONST_ACC_R][HIT] = 11
	L2_cache_stats_breakdown[CONST_ACC_R][HIT_RESERVED] = 3
	L2_cache_stats_breakdown[CONST_ACC_R][MISS] = 1
	L2_cache_stats_breakdown[CONST_ACC_R][RESERVATION_FAIL] = 106
	L2_cache_stats_breakdown[GLOBAL_ACC_W][MISS] = 125000
	L2_cache_stats_breakdown[GLOBAL_ACC_W][RESERVATION_FAIL] = 108712
	L2_cache_stats_breakdown[INST_ACC_R][HIT] = 88
	L2_cache_stats_breakdown[INST_ACC_R][HIT_RESERVED] = 24
	L2_cache_stats_breakdown[INST_ACC_R][MISS] = 8
	L2_cache_stats_breakdown[INST_ACC_R][RESERVATION_FAIL] = 764
L2_cache_data_port_util = 0.000
L2_cache_fill_port_util = 0.367

icnt_total_pkts_mem_to_simt=1063145
icnt_total_pkts_simt_to_mem=812635
LD_mem_lat_dist  0 0 0 0 0 0 0 0 0 0 0 0 0 0 0 0 0 0 0 0 0 0 0 0 0 0 0
ST_mem_lat_dist  0 0 0 0 0 0 0 0 0 0 0 0 0 0 0 0 0 0 0 0 0 0 0 0 0 0 0
----------------------------Interconnect-DETAILS--------------------------------
Class 0:
Packet latency average = 19.1394
	minimum = 6
	maximum = 415
Network latency average = 15.8769
	minimum = 6
	maximum = 386
Slowest packet = 4295
Flit latency average = 12.1882
	minimum = 6
	maximum = 382
Slowest flit = 12751
Fragmentation average = 0.109581
	minimum = 0
	maximum = 326
Injected packet rate average = 0.081492
	minimum = 0.0732959 (at node 4)
	maximum = 0.0917984 (at node 15)
Accepted packet rate average = 0.081492
	minimum = 0.0732959 (at node 4)
	maximum = 0.0917984 (at node 15)
Injected flit rate average = 0.244472
	minimum = 0.190519 (at node 4)
	maximum = 0.312274 (at node 15)
Accepted flit rate average= 0.244472
	minimum = 0.238246 (at node 16)
	maximum = 0.249489 (at node 0)
Injected packet length average = 2.99995
Accepted packet length average = 2.99995
Total in-flight flits = 0 (0 measured)
====== Overall Traffic Statistics ======
====== Traffic class 0 ======
Packet latency average = 19.1394 (1 samples)
	minimum = 6 (1 samples)
	maximum = 415 (1 samples)
Network latency average = 15.8769 (1 samples)
	minimum = 6 (1 samples)
	maximum = 386 (1 samples)
Flit latency average = 12.1882 (1 samples)
	minimum = 6 (1 samples)
	maximum = 382 (1 samples)
Fragmentation average = 0.109581 (1 samples)
	minimum = 0 (1 samples)
	maximum = 326 (1 samples)
Injected packet rate average = 0.081492 (1 samples)
	minimum = 0.0732959 (1 samples)
	maximum = 0.0917984 (1 samples)
Accepted packet rate average = 0.081492 (1 samples)
	minimum = 0.0732959 (1 samples)
	maximum = 0.0917984 (1 samples)
Injected flit rate average = 0.244472 (1 samples)
	minimum = 0.190519 (1 samples)
	maximum = 0.312274 (1 samples)
Accepted flit rate average = 0.244472 (1 samples)
	minimum = 0.238246 (1 samples)
	maximum = 0.249489 (1 samples)
Injected packet size average = 2.99995 (1 samples)
Accepted packet size average = 2.99995 (1 samples)
Hops average = 1 (1 samples)
----------------------------END-of-Interconnect-DETAILS-------------------------


gpgpu_simulation_time = 0 days, 0 hrs, 5 min, 27 sec (327 sec)
gpgpu_simulation_rate = 598720 (inst/sec)
gpgpu_simulation_rate = 869 (cycle/sec)
GPGPU-Sim: synchronize waiting for inactive GPU simulation
GPGPU-Sim API: Stream Manager State
GPGPU-Sim: detected inactive GPU simulation thread
Options count             : 4000000     
BlackScholesGPU() time    : 325164.437500 msec
Effective memory bandwidth: 0.000123 GB/s
Gigaoptions per second    : 0.000012     
Reading back GPU results...
Checking the results...
...running CPU calculations.
Comparing the results...
L1 norm: 1.729535E-07
Max absolute error: 1.192093E-05
TEST PASSED
Shutting down...
...releasing GPU memory.
...releasing CPU memory.
Shutdown done.
GPGPU-Sim: exit_simulation called
GPGPU-Sim: simulation thread signaled exit

Press ENTER to exit...
