

        *** GPGPU-Sim Simulator Version 3.2.2  [build 0] ***


GPGPU-Sim PTX: simulation mode 0 (can change with PTX_SIM_MODE_FUNC environment variable:
               1=functional simulation only, 0=detailed performance simulator)
GPGPU-Sim: Configuration options:

-network_mode                           1 # Interconnection network mode
-inter_config_file   config_fermi_islip.icnt # Interconnection network config file
-gpgpu_ptx_use_cuobjdump                    1 # Use cuobjdump to extract ptx and sass from binaries
-gpgpu_experimental_lib_support                    0 # Try to extract code from cuda libraries [Broken because of unknown cudaGetExportTable]
-gpgpu_ptx_convert_to_ptxplus                    0 # Convert SASS (native ISA) to ptxplus and run ptxplus
-gpgpu_ptx_force_max_capability                   20 # Force maximum compute capability
-gpgpu_ptx_inst_debug_to_file                    0 # Dump executed instructions' debug information to file
-gpgpu_ptx_inst_debug_file       inst_debug.txt # Executed instructions' debug output file
-gpgpu_ptx_inst_debug_thread_uid                    1 # Thread UID for executed instructions' debug output
-gpgpu_simd_model                       1 # 1 = post-dominator
-gpgpu_shader_core_pipeline              1536:32 # shader core pipeline config, i.e., {<nthread>:<warpsize>}
-gpgpu_tex_cache:l1  4:128:24,L:R:m:N:L,F:128:4,128:2 # per-shader L1 texture cache  (READ-ONLY) config  {<nsets>:<bsize>:<assoc>,<rep>:<wr>:<alloc>:<wr_alloc>,<mshr>:<N>:<merge>,<mq>:<rf>}
-gpgpu_const_cache:l1 64:64:2,L:R:f:N:L,A:2:32,4 # per-shader L1 constant memory cache  (READ-ONLY) config  {<nsets>:<bsize>:<assoc>,<rep>:<wr>:<alloc>:<wr_alloc>,<mshr>:<N>:<merge>,<mq>} 
-gpgpu_cache:il1     4:128:4,L:R:f:N:L,A:2:32,4 # shader L1 instruction cache config  {<nsets>:<bsize>:<assoc>,<rep>:<wr>:<alloc>:<wr_alloc>,<mshr>:<N>:<merge>,<mq>} 
-gpgpu_cache:dl1     32:128:4,L:L:m:N:H,A:32:8,8 # per-shader L1 data cache config  {<nsets>:<bsize>:<assoc>,<rep>:<wr>:<alloc>:<wr_alloc>,<mshr>:<N>:<merge>,<mq> | none}
-gpgpu_cache:dl1PrefL1                 none # per-shader L1 data cache config  {<nsets>:<bsize>:<assoc>,<rep>:<wr>:<alloc>:<wr_alloc>,<mshr>:<N>:<merge>,<mq> | none}
-gpgpu_cache:dl1PreShared                 none # per-shader L1 data cache config  {<nsets>:<bsize>:<assoc>,<rep>:<wr>:<alloc>:<wr_alloc>,<mshr>:<N>:<merge>,<mq> | none}
-gmem_skip_L1D                          0 # global memory access skip L1D cache (implements -Xptxas -dlcm=cg, default=no skip)
-gpgpu_perfect_mem                      0 # enable perfect memory mode (no cache miss)
-n_regfile_gating_group                    4 # group of lanes that should be read/written together)
-gpgpu_clock_gated_reg_file                    0 # enable clock gated reg file for power calculations
-gpgpu_clock_gated_lanes                    0 # enable clock gated lanes for power calculations
-gpgpu_shader_registers                32768 # Number of registers per shader core. Limits number of concurrent CTAs. (default 8192)
-gpgpu_shader_cta                       8 # Maximum number of concurrent CTAs in shader (default 8)
-gpgpu_num_cta_barriers                   16 # Maximum number of named barriers per CTA (default 16)
-gpgpu_n_clusters                      15 # number of processing clusters
-gpgpu_n_cores_per_cluster                    1 # number of simd cores per cluster
-gpgpu_n_cluster_ejection_buffer_size                    8 # number of packets in ejection buffer
-gpgpu_n_ldst_response_buffer_size                    2 # number of response packets in ld/st unit ejection buffer
-gpgpu_shmem_size                   16384 # Size of shared memory per shader core (default 16kB)
-gpgpu_shmem_size                   49152 # Size of shared memory per shader core (default 16kB)
-gpgpu_shmem_size_PrefL1                16384 # Size of shared memory per shader core (default 16kB)
-gpgpu_shmem_size_PrefShared                16384 # Size of shared memory per shader core (default 16kB)
-gpgpu_shmem_num_banks                   32 # Number of banks in the shared memory in each shader core (default 16)
-gpgpu_shmem_limited_broadcast                    0 # Limit shared memory to do one broadcast per cycle (default on)
-gpgpu_shmem_warp_parts                    1 # Number of portions a warp is divided into for shared memory bank conflict check 
-gpgpu_warpdistro_shader                   -1 # Specify which shader core to collect the warp size distribution from
-gpgpu_warp_issue_shader                    0 # Specify which shader core to collect the warp issue distribution from
-gpgpu_local_mem_map                    1 # Mapping from local memory space address to simulated GPU physical address space (default = enabled)
-gpgpu_num_reg_banks                   16 # Number of register banks (default = 8)
-gpgpu_reg_bank_use_warp_id                    0 # Use warp ID in mapping registers to banks (default = off)
-gpgpu_operand_collector_num_units_sp                    6 # number of collector units (default = 4)
-gpgpu_operand_collector_num_units_sfu                    8 # number of collector units (default = 4)
-gpgpu_operand_collector_num_units_mem                    2 # number of collector units (default = 2)
-gpgpu_operand_collector_num_units_gen                    0 # number of collector units (default = 0)
-gpgpu_operand_collector_num_in_ports_sp                    2 # number of collector unit in ports (default = 1)
-gpgpu_operand_collector_num_in_ports_sfu                    1 # number of collector unit in ports (default = 1)
-gpgpu_operand_collector_num_in_ports_mem                    1 # number of collector unit in ports (default = 1)
-gpgpu_operand_collector_num_in_ports_gen                    0 # number of collector unit in ports (default = 0)
-gpgpu_operand_collector_num_out_ports_sp                    2 # number of collector unit in ports (default = 1)
-gpgpu_operand_collector_num_out_ports_sfu                    1 # number of collector unit in ports (default = 1)
-gpgpu_operand_collector_num_out_ports_mem                    1 # number of collector unit in ports (default = 1)
-gpgpu_operand_collector_num_out_ports_gen                    0 # number of collector unit in ports (default = 0)
-gpgpu_coalesce_arch                   13 # Coalescing arch (default = 13, anything else is off for now)
-gpgpu_num_sched_per_core                    2 # Number of warp schedulers per core
-gpgpu_max_insn_issue_per_warp                    1 # Max number of instructions that can be issued per warp in one cycle by scheduler
-gpgpu_simt_core_sim_order                    1 # Select the simulation order of cores in a cluster (0=Fix, 1=Round-Robin)
-gpgpu_pipeline_widths        2,1,1,2,1,1,2 # Pipeline widths ID_OC_SP,ID_OC_SFU,ID_OC_MEM,OC_EX_SP,OC_EX_SFU,OC_EX_MEM,EX_WB
-gpgpu_num_sp_units                     2 # Number of SP units (default=1)
-gpgpu_num_sfu_units                    1 # Number of SF units (default=1)
-gpgpu_num_mem_units                    1 # Number if ldst units (default=1) WARNING: not hooked up to anything
-gpgpu_scheduler                      gto # Scheduler configuration: < lrr | gto | two_level_active > If two_level_active:<num_active_warps>:<inner_prioritization>:<outer_prioritization>For complete list of prioritization values see shader.h enum scheduler_prioritization_typeDefault: gto
-gpgpu_dram_scheduler                    1 # 0 = fifo, 1 = FR-FCFS (defaul)
-gpgpu_dram_partition_queues              8:8:8:8 # i2$:$2d:d2$:$2i
-l2_ideal                               0 # Use a ideal L2 cache that always hit
-gpgpu_cache:dl2     64:128:8,L:B:m:W:L,A:32:4,4:0,32 # unified banked L2 data cache config  {<nsets>:<bsize>:<assoc>,<rep>:<wr>:<alloc>:<wr_alloc>,<mshr>:<N>:<merge>,<mq>}
-gpgpu_cache:dl2_texture_only                    0 # L2 cache used for texture only
-gpgpu_n_mem                            6 # number of memory modules (e.g. memory controllers) in gpu
-gpgpu_n_sub_partition_per_mchannel                    2 # number of memory subpartition in each memory module
-gpgpu_n_mem_per_ctrlr                    2 # number of memory chips per memory controller
-gpgpu_memlatency_stat                   14 # track and display latency statistics 0x2 enables MC, 0x4 enables queue logs
-gpgpu_frfcfs_dram_sched_queue_size                   16 # 0 = unlimited (default); # entries per chip
-gpgpu_dram_return_queue_size                  116 # 0 = unlimited (default); # entries per chip
-gpgpu_dram_buswidth                    1 # default = 4 bytes (8 bytes per cycle at DDR)
-gpgpu_dram_burst_length                    8 # Burst length of each DRAM request (default = 4 data bus cycle)
-dram_data_command_freq_ratio                    4 # Frequency ratio between DRAM data bus and command bus (default = 2 times, i.e. DDR)
-gpgpu_dram_timing_opt nbk=16:CCD=2:RRD=6:RCD=12:RAS=28:RP=12:RC=40: CL=12:WL=4:CDLR=5:WR=12:nbkgrp=4:CCDL=3:RTPL=2 # DRAM timing parameters = {nbk:tCCD:tRRD:tRCD:tRAS:tRP:tRC:CL:WL:tCDLR:tWR:nbkgrp:tCCDL:tRTPL}
-rop_latency                          120 # ROP queue latency (default 85)
-dram_latency                         100 # DRAM latency (default 30)
-gpgpu_mem_addr_mapping dramid@8;00000000.00000000.00000000.00000000.0000RRRR.RRRRRRRR.BBBCCCCB.CCSSSSSS # mapping memory address to dram model {dramid@<start bit>;<memory address map>}
-gpgpu_mem_addr_test                    0 # run sweep test to check address mapping for aliased address
-gpgpu_mem_address_mask                    1 # 0 = old addressing mask, 1 = new addressing mask, 2 = new add. mask + flipped bank sel and chip sel bits
-gpuwattch_xml_file  gpuwattch_gtx480.xml # GPUWattch XML file
-power_simulation_enabled                    0 # Turn on power simulator (1=On, 0=Off)
-power_per_cycle_dump                    0 # Dump detailed power output each cycle
-power_trace_enabled                    0 # produce a file for the power trace (1=On, 0=Off)
-power_trace_zlevel                     6 # Compression level of the power trace output log (0=no comp, 9=highest)
-steady_power_levels_enabled                    0 # produce a file for the steady power levels (1=On, 0=Off)
-steady_state_definition                  8:4 # allowed deviation:number of samples
-gpgpu_max_cycle                        0 # terminates gpu simulation early (0 = no limit)
-gpgpu_max_insn                         0 # terminates gpu simulation early (0 = no limit)
-gpgpu_max_cta                          0 # terminates gpu simulation early (0 = no limit)
-gpgpu_runtime_stat                   500 # display runtime statistics such as dram utilization {<freq>:<flag>}
-liveness_message_freq                    1 # Minimum number of seconds between simulation liveness messages (0 = always print)
-gpgpu_flush_l1_cache                    0 # Flush L1 cache at the end of each kernel call
-gpgpu_flush_l2_cache                    0 # Flush L2 cache at the end of each kernel call
-gpgpu_deadlock_detect                    1 # Stop the simulation at deadlock (1=on (default), 0=off)
-gpgpu_ptx_instruction_classification                    0 # if enabled will classify ptx instruction types per kernel (Max 255 kernels now)
-gpgpu_ptx_sim_mode                     0 # Select between Performance (default) or Functional simulation (1)
-gpgpu_clock_domains 700.0:700.0:700.0:924.0 # Clock Domain Frequencies in MhZ {<Core Clock>:<ICNT Clock>:<L2 Clock>:<DRAM Clock>}
-gpgpu_max_concurrent_kernel                    8 # maximum kernels that can run concurrently on GPU
-gpgpu_cflog_interval                    0 # Interval between each snapshot in control flow logger
-visualizer_enabled                     0 # Turn on visualizer output (1=On, 0=Off)
-visualizer_outputfile                 NULL # Specifies the output log file for visualizer
-visualizer_zlevel                      6 # Compression level of the visualizer output log (0=no comp, 9=highest)
-trace_enabled                          0 # Turn on traces
-trace_components                    none # comma seperated list of traces to enable. Complete list found in trace_streams.tup. Default none
-trace_sampling_core                    0 # The core which is printed using CORE_DPRINTF. Default 0
-trace_sampling_memory_partition                   -1 # The memory partition which is printed using MEMPART_DPRINTF. Default -1 (i.e. all)
-enable_ptx_file_line_stats                    1 # Turn on PTX source line statistic profiling. (1 = On)
-ptx_line_stats_filename gpgpu_inst_stats.txt # Output file for PTX source line statistics.
-save_embedded_ptx                      0 # saves ptx files embedded in binary as <n>.ptx
-keep                                   0 # keep intermediate files created by GPGPU-Sim when interfacing with external programs
-gpgpu_ptx_save_converted_ptxplus                    0 # Saved converted ptxplus to a file
-ptx_opcode_latency_int         4,13,4,5,145 # Opcode latencies for integers <ADD,MAX,MUL,MAD,DIV>Default 1,1,19,25,145
-ptx_opcode_latency_fp          4,13,4,5,39 # Opcode latencies for single precision floating points <ADD,MAX,MUL,MAD,DIV>Default 1,1,1,1,30
-ptx_opcode_latency_dp         8,19,8,8,330 # Opcode latencies for double precision floating points <ADD,MAX,MUL,MAD,DIV>Default 8,8,8,8,335
-ptx_opcode_initiation_int            1,2,2,1,8 # Opcode initiation intervals for integers <ADD,MAX,MUL,MAD,DIV>Default 1,1,4,4,32
-ptx_opcode_initiation_fp            1,2,1,1,4 # Opcode initiation intervals for single precision floating points <ADD,MAX,MUL,MAD,DIV>Default 1,1,1,1,5
-ptx_opcode_initiation_dp         8,16,8,8,130 # Opcode initiation intervals for double precision floating points <ADD,MAX,MUL,MAD,DIV>Default 8,8,8,8,130
DRAM Timing Options:
nbk                                    16 # number of banks
CCD                                     2 # column to column delay
RRD                                     6 # minimal delay between activation of rows in different banks
RCD                                    12 # row to column delay
RAS                                    28 # time needed to activate row
RP                                     12 # time needed to precharge (deactivate) row
RC                                     40 # row cycle time
CDLR                                    5 # switching from write to read (changes tWTR)
WR                                     12 # last data-in to row precharge
CL                                     12 # CAS latency
WL                                      4 # Write latency
nbkgrp                                  4 # number of bank groups
CCDL                                    3 # column to column delay between accesses to different bank groups
RTPL                                    2 # read to precharge delay between accesses to different bank groups
Total number of memory sub partition = 12
addr_dec_mask[CHIP]  = 0000000000000000 	high:64 low:0
addr_dec_mask[BK]    = 000000000000e100 	high:16 low:8
addr_dec_mask[ROW]   = 000000000fff0000 	high:28 low:16
addr_dec_mask[COL]   = 0000000000001eff 	high:13 low:0
addr_dec_mask[BURST] = 000000000000003f 	high:6 low:0
sub_partition_id_mask = 0000000000000100
GPGPU-Sim uArch: clock freqs: 700000000.000000:700000000.000000:700000000.000000:924000000.000000
GPGPU-Sim uArch: clock periods: 0.00000000142857142857:0.00000000142857142857:0.00000000142857142857:0.00000000108225108225
*** Initializing Memory Statistics ***
GPGPU-Sim uArch: interconnect node map (shaderID+MemID to icntID)
GPGPU-Sim uArch: Memory nodes ID start from index: 15
GPGPU-Sim uArch:    0   1   2   3   4
GPGPU-Sim uArch:    5   6   7   8   9
GPGPU-Sim uArch:   10  11  12  13  14
GPGPU-Sim uArch:   15  16  17  18  19
GPGPU-Sim uArch:   20  21  22  23  24
GPGPU-Sim uArch:   25  26
GPGPU-Sim uArch: interconnect node reverse map (icntID to shaderID+MemID)
GPGPU-Sim uArch: Memory nodes start from ID: 15
GPGPU-Sim uArch:    0   1   2   3   4
GPGPU-Sim uArch:    5   6   7   8   9
GPGPU-Sim uArch:   10  11  12  13  14
GPGPU-Sim uArch:   15  16  17  18  19
GPGPU-Sim uArch:   20  21  22  23  24
GPGPU-Sim uArch:   25  26
e389dacb331e7fcddf4abf4a164344f1  /sciclone/data20/adwait/applications/benchmarks/CUDA/BlackScholes/gpgpu_ptx_sim__BlackScholes
GPGPU-Sim uArch: performance model initialization complete.
GPGPU-Sim PTX: __cudaRegisterFatBinary, fat_cubin_handle = 1, filename=BlackScholes.cu
self exe links to: /sciclone/data20/adwait/applications/benchmarks/CUDA/BlackScholes/gpgpu_ptx_sim__BlackScholes
Running md5sum using "md5sum /sciclone/data20/adwait/applications/benchmarks/CUDA/BlackScholes/gpgpu_ptx_sim__BlackScholes "
Parsing file _cuobjdump_complete_output_VwVlP5
######### cuobjdump parser ########
## Adding new section ELF
Adding arch: sm_20
Adding identifier: BlackScholes.cu
## Adding new section PTX
Adding ptx filename: _cuobjdump_1.ptx
Adding arch: sm_20
Adding identifier: BlackScholes.cu
Done parsing!!!
GPGPU-Sim PTX: __cudaRegisterFunction _Z15BlackScholesGPUPfS_S_S_S_ffi : hostFun 0x0x405752, fat_cubin_handle = 1
GPGPU-Sim PTX: instruction assembly for function '_Z15BlackScholesGPUPfS_S_S_S_ffi'...   done.
GPGPU-Sim PTX: finding reconvergence points for '_Z15BlackScholesGPUPfS_S_S_S_ffi'...
GPGPU-Sim PTX: Finding dominators for '_Z15BlackScholesGPUPfS_S_S_S_ffi'...
GPGPU-Sim PTX: Finding immediate dominators for '_Z15BlackScholesGPUPfS_S_S_S_ffi'...
GPGPU-Sim PTX: Finding postdominators for '_Z15BlackScholesGPUPfS_S_S_S_ffi'...
GPGPU-Sim PTX: Finding immediate postdominators for '_Z15BlackScholesGPUPfS_S_S_S_ffi'...
GPGPU-Sim PTX: pre-decoding instructions for '_Z15BlackScholesGPUPfS_S_S_S_ffi'...
GPGPU-Sim PTX: reconvergence points for _Z15BlackScholesGPUPfS_S_S_S_ffi...
GPGPU-Sim PTX:  1 (potential) branch divergence @  PC=0x040 (_1.ptx:76) @%p1 bra $Lt_0_2818;
GPGPU-Sim PTX:    immediate post dominator      @  PC=0x3f8 (_1.ptx:200) exit;
GPGPU-Sim PTX:  2 (potential) branch divergence @  PC=0x3f0 (_1.ptx:197) @%p4 bra $Lt_0_3330;
GPGPU-Sim PTX:    immediate post dominator      @  PC=0x3f8 (_1.ptx:200) exit;
GPGPU-Sim PTX: ... end of reconvergence points for _Z15BlackScholesGPUPfS_S_S_S_ffi
GPGPU-Sim PTX: ... done pre-decoding instructions for '_Z15BlackScholesGPUPfS_S_S_S_ffi'.
GPGPU-Sim PTX: finished parsing EMBEDDED .ptx file _1.ptx
Adding _cuobjdump_1.ptx with cubin handle 1
GPGPU-Sim PTX: extracting embedded .ptx to temporary file "_ptx_Nrtgg1"
Running: cat _ptx_Nrtgg1 | sed 's/.version 1.5/.version 1.4/' | sed 's/, texmode_independent//' | sed 's/\(\.extern \.const\[1\] .b8 \w\+\)\[\]/\1\[1\]/' | sed 's/const\[.\]/const\[0\]/g' > _ptx2_rDngeX
GPGPU-Sim PTX: generating ptxinfo using "$CUDA_INSTALL_PATH/bin/ptxas --gpu-name=sm_20 -v _ptx2_rDngeX --output-file  /dev/null 2> _ptx_Nrtgg1info"
GPGPU-Sim PTX: Kernel '_Z15BlackScholesGPUPfS_S_S_S_ffi' : regs=31, lmem=0, smem=0, cmem=128
GPGPU-Sim PTX: removing ptxinfo using "rm -f _ptx_Nrtgg1 _ptx2_rDngeX _ptx_Nrtgg1info"
GPGPU-Sim PTX: loading globals with explicit initializers... 
GPGPU-Sim PTX: finished loading globals (0 bytes total).
GPGPU-Sim PTX: loading constants with explicit initializers...  done.
Initializing data...
...allocating CPU memory for options.
...allocating GPU memory for options.
...generating input data in CPU mem.
...copying input data to GPU mem.
Data init done.
Executing Black-Scholes GPU kernel (1 iterations)...
GPGPU-Sim: synchronize waiting for inactive GPU simulation
GPGPU-Sim API: Stream Manager State
GPGPU-Sim: detected inactive GPU simulation thread

GPGPU-Sim PTX: cudaLaunch for 0x0x405752 (mode=performance simulation) on stream 0
GPGPU-Sim PTX: pushing kernel '_Z15BlackScholesGPUPfS_S_S_S_ffi' to stream 0, gridDim= (480,1,1) blockDim = (128,1,1) 
kernel '_Z15BlackScholesGPUPfS_S_S_S_ffi' transfer to GPU hardware scheduler
GPGPU-Sim uArch: Shader 1 bind to kernel 1 '_Z15BlackScholesGPUPfS_S_S_S_ffi'
GPGPU-Sim uArch: CTA/core = 8, limited by: regs cta_limit
GPGPU-Sim uArch: core:  1, cta: 0 initialized @(1,0)
GPGPU-Sim uArch: Shader 2 bind to kernel 1 '_Z15BlackScholesGPUPfS_S_S_S_ffi'
GPGPU-Sim uArch: core:  2, cta: 0 initialized @(1,0)
GPGPU-Sim uArch: Shader 3 bind to kernel 1 '_Z15BlackScholesGPUPfS_S_S_S_ffi'
GPGPU-Sim uArch: core:  3, cta: 0 initialized @(1,0)
GPGPU-Sim uArch: Shader 4 bind to kernel 1 '_Z15BlackScholesGPUPfS_S_S_S_ffi'
GPGPU-Sim uArch: core:  4, cta: 0 initialized @(1,0)
GPGPU-Sim uArch: Shader 5 bind to kernel 1 '_Z15BlackScholesGPUPfS_S_S_S_ffi'
GPGPU-Sim uArch: core:  5, cta: 0 initialized @(1,0)
GPGPU-Sim uArch: Shader 6 bind to kernel 1 '_Z15BlackScholesGPUPfS_S_S_S_ffi'
GPGPU-Sim uArch: core:  6, cta: 0 initialized @(1,0)
GPGPU-Sim uArch: Shader 7 bind to kernel 1 '_Z15BlackScholesGPUPfS_S_S_S_ffi'
GPGPU-Sim uArch: core:  7, cta: 0 initialized @(1,0)
GPGPU-Sim uArch: Shader 8 bind to kernel 1 '_Z15BlackScholesGPUPfS_S_S_S_ffi'
GPGPU-Sim uArch: core:  8, cta: 0 initialized @(1,0)
GPGPU-Sim uArch: Shader 9 bind to kernel 1 '_Z15BlackScholesGPUPfS_S_S_S_ffi'
GPGPU-Sim uArch: core:  9, cta: 0 initialized @(1,0)
GPGPU-Sim uArch: Shader 10 bind to kernel 1 '_Z15BlackScholesGPUPfS_S_S_S_ffi'
GPGPU-Sim uArch: core: 10, cta: 0 initialized @(1,0)
GPGPU-Sim uArch: Shader 11 bind to kernel 1 '_Z15BlackScholesGPUPfS_S_S_S_ffi'
GPGPU-Sim uArch: core: 11, cta: 0 initialized @(1,0)
GPGPU-Sim uArch: Shader 12 bind to kernel 1 '_Z15BlackScholesGPUPfS_S_S_S_ffi'
GPGPU-Sim uArch: core: 12, cta: 0 initialized @(1,0)
GPGPU-Sim uArch: Shader 13 bind to kernel 1 '_Z15BlackScholesGPUPfS_S_S_S_ffi'
GPGPU-Sim uArch: core: 13, cta: 0 initialized @(1,0)
GPGPU-Sim uArch: Shader 14 bind to kernel 1 '_Z15BlackScholesGPUPfS_S_S_S_ffi'
GPGPU-Sim uArch: core: 14, cta: 0 initialized @(1,0)
GPGPU-Sim uArch: Shader 0 bind to kernel 1 '_Z15BlackScholesGPUPfS_S_S_S_ffi'
GPGPU-Sim uArch: core:  0, cta: 0 initialized @(1,0)
GPGPU-Sim uArch: core:  1, cta: 1 initialized @(2,0)
GPGPU-Sim uArch: core:  2, cta: 1 initialized @(2,0)
GPGPU-Sim uArch: core:  3, cta: 1 initialized @(2,0)
GPGPU-Sim uArch: core:  4, cta: 1 initialized @(2,0)
GPGPU-Sim uArch: core:  5, cta: 1 initialized @(2,0)
GPGPU-Sim uArch: core:  6, cta: 1 initialized @(2,0)
GPGPU-Sim uArch: core:  7, cta: 1 initialized @(2,0)
GPGPU-Sim uArch: core:  8, cta: 1 initialized @(2,0)
GPGPU-Sim uArch: core:  9, cta: 1 initialized @(2,0)
GPGPU-Sim uArch: core: 10, cta: 1 initialized @(2,0)
GPGPU-Sim uArch: core: 11, cta: 1 initialized @(2,0)
GPGPU-Sim uArch: core: 12, cta: 1 initialized @(2,0)
GPGPU-Sim uArch: core: 13, cta: 1 initialized @(2,0)
GPGPU-Sim uArch: core: 14, cta: 1 initialized @(2,0)
GPGPU-Sim uArch: core:  0, cta: 1 initialized @(2,0)
GPGPU-Sim uArch: core:  1, cta: 2 initialized @(3,0)
GPGPU-Sim uArch: core:  2, cta: 2 initialized @(3,0)
GPGPU-Sim uArch: core:  3, cta: 2 initialized @(3,0)
GPGPU-Sim uArch: core:  4, cta: 2 initialized @(3,0)
GPGPU-Sim uArch: core:  5, cta: 2 initialized @(3,0)
GPGPU-Sim uArch: core:  6, cta: 2 initialized @(3,0)
GPGPU-Sim uArch: core:  7, cta: 2 initialized @(3,0)
GPGPU-Sim uArch: core:  8, cta: 2 initialized @(3,0)
GPGPU-Sim uArch: core:  9, cta: 2 initialized @(3,0)
GPGPU-Sim uArch: core: 10, cta: 2 initialized @(3,0)
GPGPU-Sim uArch: core: 11, cta: 2 initialized @(3,0)
GPGPU-Sim uArch: core: 12, cta: 2 initialized @(3,0)
GPGPU-Sim uArch: core: 13, cta: 2 initialized @(3,0)
GPGPU-Sim uArch: core: 14, cta: 2 initialized @(3,0)
GPGPU-Sim uArch: core:  0, cta: 2 initialized @(3,0)
GPGPU-Sim uArch: core:  1, cta: 3 initialized @(4,0)
GPGPU-Sim uArch: core:  2, cta: 3 initialized @(4,0)
GPGPU-Sim uArch: core:  3, cta: 3 initialized @(4,0)
GPGPU-Sim uArch: core:  4, cta: 3 initialized @(4,0)
GPGPU-Sim uArch: core:  5, cta: 3 initialized @(4,0)
GPGPU-Sim uArch: core:  6, cta: 3 initialized @(4,0)
GPGPU-Sim uArch: core:  7, cta: 3 initialized @(4,0)
GPGPU-Sim uArch: core:  8, cta: 3 initialized @(4,0)
GPGPU-Sim uArch: core:  9, cta: 3 initialized @(4,0)
GPGPU-Sim uArch: core: 10, cta: 3 initialized @(4,0)
GPGPU-Sim uArch: core: 11, cta: 3 initialized @(4,0)
GPGPU-Sim uArch: core: 12, cta: 3 initialized @(4,0)
GPGPU-Sim uArch: core: 13, cta: 3 initialized @(4,0)
GPGPU-Sim uArch: core: 14, cta: 3 initialized @(4,0)
GPGPU-Sim uArch: core:  0, cta: 3 initialized @(4,0)
GPGPU-Sim uArch: core:  1, cta: 4 initialized @(5,0)
GPGPU-Sim uArch: core:  2, cta: 4 initialized @(5,0)
GPGPU-Sim uArch: core:  3, cta: 4 initialized @(5,0)
GPGPU-Sim uArch: core:  4, cta: 4 initialized @(5,0)
GPGPU-Sim uArch: core:  5, cta: 4 initialized @(5,0)
GPGPU-Sim uArch: core:  6, cta: 4 initialized @(5,0)
GPGPU-Sim uArch: core:  7, cta: 4 initialized @(5,0)
GPGPU-Sim uArch: core:  8, cta: 4 initialized @(5,0)
GPGPU-Sim uArch: core:  9, cta: 4 initialized @(5,0)
GPGPU-Sim uArch: core: 10, cta: 4 initialized @(5,0)
GPGPU-Sim uArch: core: 11, cta: 4 initialized @(5,0)
GPGPU-Sim uArch: core: 12, cta: 4 initialized @(5,0)
GPGPU-Sim uArch: core: 13, cta: 4 initialized @(5,0)
GPGPU-Sim uArch: core: 14, cta: 4 initialized @(5,0)
GPGPU-Sim uArch: core:  0, cta: 4 initialized @(5,0)
GPGPU-Sim uArch: core:  1, cta: 5 initialized @(6,0)
GPGPU-Sim uArch: core:  2, cta: 5 initialized @(6,0)
GPGPU-Sim uArch: core:  3, cta: 5 initialized @(6,0)
GPGPU-Sim uArch: core:  4, cta: 5 initialized @(6,0)
GPGPU-Sim uArch: core:  5, cta: 5 initialized @(6,0)
GPGPU-Sim uArch: core:  6, cta: 5 initialized @(6,0)
GPGPU-Sim uArch: core:  7, cta: 5 initialized @(6,0)
GPGPU-Sim uArch: core:  8, cta: 5 initialized @(6,0)
GPGPU-Sim uArch: core:  9, cta: 5 initialized @(6,0)
GPGPU-Sim uArch: core: 10, cta: 5 initialized @(6,0)
GPGPU-Sim uArch: core: 11, cta: 5 initialized @(6,0)
GPGPU-Sim uArch: core: 12, cta: 5 initialized @(6,0)
GPGPU-Sim uArch: core: 13, cta: 5 initialized @(6,0)
GPGPU-Sim uArch: core: 14, cta: 5 initialized @(6,0)
GPGPU-Sim uArch: core:  0, cta: 5 initialized @(6,0)
GPGPU-Sim uArch: core:  1, cta: 6 initialized @(7,0)
GPGPU-Sim uArch: core:  2, cta: 6 initialized @(7,0)
GPGPU-Sim uArch: core:  3, cta: 6 initialized @(7,0)
GPGPU-Sim uArch: core:  4, cta: 6 initialized @(7,0)
GPGPU-Sim uArch: core:  5, cta: 6 initialized @(7,0)
GPGPU-Sim uArch: core:  6, cta: 6 initialized @(7,0)
GPGPU-Sim uArch: core:  7, cta: 6 initialized @(7,0)
GPGPU-Sim uArch: core:  8, cta: 6 initialized @(7,0)
GPGPU-Sim uArch: core:  9, cta: 6 initialized @(7,0)
GPGPU-Sim uArch: core: 10, cta: 6 initialized @(7,0)
GPGPU-Sim uArch: core: 11, cta: 6 initialized @(7,0)
GPGPU-Sim uArch: core: 12, cta: 6 initialized @(7,0)
GPGPU-Sim uArch: core: 13, cta: 6 initialized @(7,0)
GPGPU-Sim uArch: core: 14, cta: 6 initialized @(7,0)
GPGPU-Sim uArch: core:  0, cta: 6 initialized @(7,0)
GPGPU-Sim uArch: core:  1, cta: 7 initialized @(8,0)
GPGPU-Sim uArch: core:  2, cta: 7 initialized @(8,0)
GPGPU-Sim uArch: core:  3, cta: 7 initialized @(8,0)
GPGPU-Sim uArch: core:  4, cta: 7 initialized @(8,0)
GPGPU-Sim uArch: core:  5, cta: 7 initialized @(8,0)
GPGPU-Sim uArch: core:  6, cta: 7 initialized @(8,0)
GPGPU-Sim uArch: core:  7, cta: 7 initialized @(8,0)
GPGPU-Sim uArch: core:  8, cta: 7 initialized @(8,0)
GPGPU-Sim uArch: core:  9, cta: 7 initialized @(8,0)
GPGPU-Sim uArch: core: 10, cta: 7 initialized @(8,0)
GPGPU-Sim uArch: core: 11, cta: 7 initialized @(8,0)
GPGPU-Sim uArch: core: 12, cta: 7 initialized @(8,0)
GPGPU-Sim uArch: core: 13, cta: 7 initialized @(8,0)
GPGPU-Sim uArch: core: 14, cta: 7 initialized @(8,0)
GPGPU-Sim uArch: core:  0, cta: 7 initialized @(8,0)
GPGPU-Sim PTX: 100000 instructions simulated : ctaid=(112,0,0) tid=(95,0,0)
GPGPU-Sim uArch: cycles simulated: 500  inst.: 92032 (ipc=184.1) sim_rate=46016 (inst/sec) elapsed = 0:0:00:02 / Sun Feb 28 20:30:19 2016
GPGPU-Sim PTX: 200000 instructions simulated : ctaid=(101,0,0) tid=(31,0,0)
GPGPU-Sim uArch: cycles simulated: 1000  inst.: 230464 (ipc=230.5) sim_rate=76821 (inst/sec) elapsed = 0:0:00:03 / Sun Feb 28 20:30:20 2016
GPGPU-Sim PTX: 300000 instructions simulated : ctaid=(72,0,0) tid=(95,0,0)
GPGPU-Sim PTX: 400000 instructions simulated : ctaid=(52,0,0) tid=(95,0,0)
GPGPU-Sim uArch: cycles simulated: 3000  inst.: 454816 (ipc=151.6) sim_rate=113704 (inst/sec) elapsed = 0:0:00:04 / Sun Feb 28 20:30:21 2016
GPGPU-Sim PTX: 500000 instructions simulated : ctaid=(108,0,0) tid=(31,0,0)
GPGPU-Sim PTX: 600000 instructions simulated : ctaid=(20,0,0) tid=(31,0,0)
GPGPU-Sim PTX: 700000 instructions simulated : ctaid=(41,0,0) tid=(31,0,0)
GPGPU-Sim PTX: 800000 instructions simulated : ctaid=(64,0,0) tid=(63,0,0)
GPGPU-Sim uArch: cycles simulated: 4500  inst.: 792128 (ipc=176.0) sim_rate=158425 (inst/sec) elapsed = 0:0:00:05 / Sun Feb 28 20:30:22 2016
GPGPU-Sim PTX: 900000 instructions simulated : ctaid=(78,0,0) tid=(95,0,0)
GPGPU-Sim PTX: 1000000 instructions simulated : ctaid=(25,0,0) tid=(31,0,0)
GPGPU-Sim PTX: 1100000 instructions simulated : ctaid=(24,0,0) tid=(127,0,0)
GPGPU-Sim PTX: 1200000 instructions simulated : ctaid=(35,0,0) tid=(127,0,0)
GPGPU-Sim PTX: 1300000 instructions simulated : ctaid=(61,0,0) tid=(31,0,0)
GPGPU-Sim PTX: 1400000 instructions simulated : ctaid=(73,0,0) tid=(63,0,0)
GPGPU-Sim PTX: 1500000 instructions simulated : ctaid=(86,0,0) tid=(63,0,0)
GPGPU-Sim PTX: 1600000 instructions simulated : ctaid=(74,0,0) tid=(127,0,0)
GPGPU-Sim uArch: cycles simulated: 6000  inst.: 1639424 (ipc=273.2) sim_rate=273237 (inst/sec) elapsed = 0:0:00:06 / Sun Feb 28 20:30:23 2016
GPGPU-Sim PTX: 1700000 instructions simulated : ctaid=(92,0,0) tid=(95,0,0)
GPGPU-Sim PTX: 1800000 instructions simulated : ctaid=(114,0,0) tid=(127,0,0)
GPGPU-Sim uArch: cycles simulated: 6500  inst.: 1814624 (ipc=279.2) sim_rate=259232 (inst/sec) elapsed = 0:0:00:07 / Sun Feb 28 20:30:24 2016
GPGPU-Sim PTX: 1900000 instructions simulated : ctaid=(83,0,0) tid=(95,0,0)
GPGPU-Sim uArch: cycles simulated: 9000  inst.: 1890304 (ipc=210.0) sim_rate=236288 (inst/sec) elapsed = 0:0:00:08 / Sun Feb 28 20:30:25 2016
GPGPU-Sim PTX: 2000000 instructions simulated : ctaid=(54,0,0) tid=(95,0,0)
GPGPU-Sim PTX: 2100000 instructions simulated : ctaid=(30,0,0) tid=(95,0,0)
GPGPU-Sim PTX: 2200000 instructions simulated : ctaid=(8,0,0) tid=(63,0,0)
GPGPU-Sim PTX: 2300000 instructions simulated : ctaid=(77,0,0) tid=(31,0,0)
GPGPU-Sim uArch: cycles simulated: 10500  inst.: 2264192 (ipc=215.6) sim_rate=251576 (inst/sec) elapsed = 0:0:00:09 / Sun Feb 28 20:30:26 2016
GPGPU-Sim PTX: 2400000 instructions simulated : ctaid=(56,0,0) tid=(31,0,0)
GPGPU-Sim PTX: 2500000 instructions simulated : ctaid=(34,0,0) tid=(31,0,0)
GPGPU-Sim PTX: 2600000 instructions simulated : ctaid=(34,0,0) tid=(63,0,0)
GPGPU-Sim PTX: 2700000 instructions simulated : ctaid=(6,0,0) tid=(31,0,0)
GPGPU-Sim uArch: cycles simulated: 12500  inst.: 2702976 (ipc=216.2) sim_rate=270297 (inst/sec) elapsed = 0:0:00:10 / Sun Feb 28 20:30:27 2016
GPGPU-Sim PTX: 2800000 instructions simulated : ctaid=(105,0,0) tid=(31,0,0)
GPGPU-Sim PTX: 2900000 instructions simulated : ctaid=(88,0,0) tid=(31,0,0)
GPGPU-Sim uArch: cycles simulated: 14000  inst.: 2924960 (ipc=208.9) sim_rate=265905 (inst/sec) elapsed = 0:0:00:11 / Sun Feb 28 20:30:28 2016
GPGPU-Sim PTX: 3000000 instructions simulated : ctaid=(30,0,0) tid=(95,0,0)
GPGPU-Sim PTX: 3100000 instructions simulated : ctaid=(22,0,0) tid=(127,0,0)
GPGPU-Sim PTX: 3200000 instructions simulated : ctaid=(71,0,0) tid=(31,0,0)
GPGPU-Sim uArch: cycles simulated: 16000  inst.: 3256320 (ipc=203.5) sim_rate=271360 (inst/sec) elapsed = 0:0:00:12 / Sun Feb 28 20:30:29 2016
GPGPU-Sim PTX: 3300000 instructions simulated : ctaid=(20,0,0) tid=(95,0,0)
GPGPU-Sim PTX: 3400000 instructions simulated : ctaid=(40,0,0) tid=(95,0,0)
GPGPU-Sim PTX: 3500000 instructions simulated : ctaid=(53,0,0) tid=(95,0,0)
GPGPU-Sim PTX: 3600000 instructions simulated : ctaid=(36,0,0) tid=(127,0,0)
GPGPU-Sim uArch: cycles simulated: 18000  inst.: 3640672 (ipc=202.3) sim_rate=280051 (inst/sec) elapsed = 0:0:00:13 / Sun Feb 28 20:30:30 2016
GPGPU-Sim PTX: 3700000 instructions simulated : ctaid=(25,0,0) tid=(31,0,0)
GPGPU-Sim PTX: 3800000 instructions simulated : ctaid=(39,0,0) tid=(95,0,0)
GPGPU-Sim PTX: 3900000 instructions simulated : ctaid=(16,0,0) tid=(95,0,0)
GPGPU-Sim uArch: cycles simulated: 19500  inst.: 3897120 (ipc=199.9) sim_rate=278365 (inst/sec) elapsed = 0:0:00:14 / Sun Feb 28 20:30:31 2016
GPGPU-Sim PTX: 4000000 instructions simulated : ctaid=(91,0,0) tid=(31,0,0)
GPGPU-Sim PTX: 4100000 instructions simulated : ctaid=(0,0,0) tid=(63,0,0)
GPGPU-Sim PTX: 4200000 instructions simulated : ctaid=(35,0,0) tid=(63,0,0)
GPGPU-Sim uArch: cycles simulated: 21500  inst.: 4205664 (ipc=195.6) sim_rate=280377 (inst/sec) elapsed = 0:0:00:15 / Sun Feb 28 20:30:32 2016
GPGPU-Sim PTX: 4300000 instructions simulated : ctaid=(4,0,0) tid=(31,0,0)
GPGPU-Sim PTX: 4400000 instructions simulated : ctaid=(46,0,0) tid=(31,0,0)
GPGPU-Sim PTX: 4500000 instructions simulated : ctaid=(21,0,0) tid=(31,0,0)
GPGPU-Sim uArch: cycles simulated: 23000  inst.: 4507552 (ipc=196.0) sim_rate=281722 (inst/sec) elapsed = 0:0:00:16 / Sun Feb 28 20:30:33 2016
GPGPU-Sim PTX: 4600000 instructions simulated : ctaid=(55,0,0) tid=(63,0,0)
GPGPU-Sim PTX: 4700000 instructions simulated : ctaid=(52,0,0) tid=(95,0,0)
GPGPU-Sim PTX: 4800000 instructions simulated : ctaid=(39,0,0) tid=(95,0,0)
GPGPU-Sim PTX: 4900000 instructions simulated : ctaid=(9,0,0) tid=(95,0,0)
GPGPU-Sim uArch: cycles simulated: 25000  inst.: 4883872 (ipc=195.4) sim_rate=287286 (inst/sec) elapsed = 0:0:00:17 / Sun Feb 28 20:30:34 2016
GPGPU-Sim PTX: 5000000 instructions simulated : ctaid=(22,0,0) tid=(31,0,0)
GPGPU-Sim PTX: 5100000 instructions simulated : ctaid=(43,0,0) tid=(63,0,0)
GPGPU-Sim uArch: cycles simulated: 26500  inst.: 5157568 (ipc=194.6) sim_rate=286531 (inst/sec) elapsed = 0:0:00:18 / Sun Feb 28 20:30:35 2016
GPGPU-Sim PTX: 5200000 instructions simulated : ctaid=(47,0,0) tid=(63,0,0)
GPGPU-Sim PTX: 5300000 instructions simulated : ctaid=(6,0,0) tid=(127,0,0)
GPGPU-Sim PTX: 5400000 instructions simulated : ctaid=(53,0,0) tid=(95,0,0)
GPGPU-Sim PTX: 5500000 instructions simulated : ctaid=(39,0,0) tid=(31,0,0)
GPGPU-Sim uArch: cycles simulated: 28500  inst.: 5549440 (ipc=194.7) sim_rate=292075 (inst/sec) elapsed = 0:0:00:19 / Sun Feb 28 20:30:36 2016
GPGPU-Sim PTX: 5600000 instructions simulated : ctaid=(11,0,0) tid=(31,0,0)
GPGPU-Sim PTX: 5700000 instructions simulated : ctaid=(24,0,0) tid=(127,0,0)
GPGPU-Sim PTX: 5800000 instructions simulated : ctaid=(52,0,0) tid=(63,0,0)
GPGPU-Sim uArch: cycles simulated: 30000  inst.: 5781472 (ipc=192.7) sim_rate=289073 (inst/sec) elapsed = 0:0:00:20 / Sun Feb 28 20:30:37 2016
GPGPU-Sim PTX: 5900000 instructions simulated : ctaid=(101,0,0) tid=(95,0,0)
GPGPU-Sim PTX: 6000000 instructions simulated : ctaid=(28,0,0) tid=(63,0,0)
GPGPU-Sim PTX: 6100000 instructions simulated : ctaid=(38,0,0) tid=(95,0,0)
GPGPU-Sim uArch: cycles simulated: 32000  inst.: 6152416 (ipc=192.3) sim_rate=292972 (inst/sec) elapsed = 0:0:00:21 / Sun Feb 28 20:30:38 2016
GPGPU-Sim PTX: 6200000 instructions simulated : ctaid=(53,0,0) tid=(95,0,0)
GPGPU-Sim PTX: 6300000 instructions simulated : ctaid=(17,0,0) tid=(63,0,0)
GPGPU-Sim PTX: 6400000 instructions simulated : ctaid=(48,0,0) tid=(31,0,0)
GPGPU-Sim PTX: 6500000 instructions simulated : ctaid=(17,0,0) tid=(63,0,0)
GPGPU-Sim uArch: cycles simulated: 33500  inst.: 6472032 (ipc=193.2) sim_rate=294183 (inst/sec) elapsed = 0:0:00:22 / Sun Feb 28 20:30:39 2016
GPGPU-Sim PTX: 6600000 instructions simulated : ctaid=(33,0,0) tid=(127,0,0)
GPGPU-Sim PTX: 6700000 instructions simulated : ctaid=(34,0,0) tid=(95,0,0)
GPGPU-Sim uArch: cycles simulated: 35000  inst.: 6740480 (ipc=192.6) sim_rate=293064 (inst/sec) elapsed = 0:0:00:23 / Sun Feb 28 20:30:40 2016
GPGPU-Sim PTX: 6800000 instructions simulated : ctaid=(19,0,0) tid=(31,0,0)
GPGPU-Sim PTX: 6900000 instructions simulated : ctaid=(57,0,0) tid=(63,0,0)
GPGPU-Sim PTX: 7000000 instructions simulated : ctaid=(29,0,0) tid=(127,0,0)
GPGPU-Sim PTX: 7100000 instructions simulated : ctaid=(63,0,0) tid=(127,0,0)
GPGPU-Sim uArch: cycles simulated: 37000  inst.: 7083296 (ipc=191.4) sim_rate=295137 (inst/sec) elapsed = 0:0:00:24 / Sun Feb 28 20:30:41 2016
GPGPU-Sim PTX: 7200000 instructions simulated : ctaid=(90,0,0) tid=(31,0,0)
GPGPU-Sim PTX: 7300000 instructions simulated : ctaid=(43,0,0) tid=(63,0,0)
GPGPU-Sim PTX: 7400000 instructions simulated : ctaid=(24,0,0) tid=(31,0,0)
GPGPU-Sim uArch: cycles simulated: 38500  inst.: 7394272 (ipc=192.1) sim_rate=295770 (inst/sec) elapsed = 0:0:00:25 / Sun Feb 28 20:30:42 2016
GPGPU-Sim PTX: 7500000 instructions simulated : ctaid=(30,0,0) tid=(95,0,0)
GPGPU-Sim PTX: 7600000 instructions simulated : ctaid=(58,0,0) tid=(63,0,0)
GPGPU-Sim PTX: 7700000 instructions simulated : ctaid=(59,0,0) tid=(127,0,0)
GPGPU-Sim uArch: cycles simulated: 40500  inst.: 7750912 (ipc=191.4) sim_rate=298112 (inst/sec) elapsed = 0:0:00:26 / Sun Feb 28 20:30:43 2016
GPGPU-Sim PTX: 7800000 instructions simulated : ctaid=(21,0,0) tid=(127,0,0)
GPGPU-Sim PTX: 7900000 instructions simulated : ctaid=(16,0,0) tid=(95,0,0)
GPGPU-Sim PTX: 8000000 instructions simulated : ctaid=(16,0,0) tid=(63,0,0)
GPGPU-Sim uArch: cycles simulated: 42000  inst.: 8011904 (ipc=190.8) sim_rate=296737 (inst/sec) elapsed = 0:0:00:27 / Sun Feb 28 20:30:44 2016
GPGPU-Sim PTX: 8100000 instructions simulated : ctaid=(74,0,0) tid=(63,0,0)
GPGPU-Sim PTX: 8200000 instructions simulated : ctaid=(21,0,0) tid=(95,0,0)
GPGPU-Sim PTX: 8300000 instructions simulated : ctaid=(39,0,0) tid=(31,0,0)
GPGPU-Sim uArch: cycles simulated: 43500  inst.: 8309920 (ipc=191.0) sim_rate=296782 (inst/sec) elapsed = 0:0:00:28 / Sun Feb 28 20:30:45 2016
GPGPU-Sim PTX: 8400000 instructions simulated : ctaid=(12,0,0) tid=(63,0,0)
GPGPU-Sim PTX: 8500000 instructions simulated : ctaid=(54,0,0) tid=(31,0,0)
GPGPU-Sim PTX: 8600000 instructions simulated : ctaid=(80,0,0) tid=(95,0,0)
GPGPU-Sim PTX: 8700000 instructions simulated : ctaid=(34,0,0) tid=(63,0,0)
GPGPU-Sim uArch: cycles simulated: 45500  inst.: 8683232 (ipc=190.8) sim_rate=299421 (inst/sec) elapsed = 0:0:00:29 / Sun Feb 28 20:30:46 2016
GPGPU-Sim PTX: 8800000 instructions simulated : ctaid=(104,0,0) tid=(95,0,0)
GPGPU-Sim PTX: 8900000 instructions simulated : ctaid=(13,0,0) tid=(127,0,0)
GPGPU-Sim uArch: cycles simulated: 47000  inst.: 8916704 (ipc=189.7) sim_rate=297223 (inst/sec) elapsed = 0:0:00:30 / Sun Feb 28 20:30:47 2016
GPGPU-Sim PTX: 9000000 instructions simulated : ctaid=(13,0,0) tid=(63,0,0)
GPGPU-Sim PTX: 9100000 instructions simulated : ctaid=(91,0,0) tid=(95,0,0)
GPGPU-Sim PTX: 9200000 instructions simulated : ctaid=(44,0,0) tid=(95,0,0)
GPGPU-Sim PTX: 9300000 instructions simulated : ctaid=(51,0,0) tid=(31,0,0)
GPGPU-Sim uArch: cycles simulated: 49000  inst.: 9309472 (ipc=190.0) sim_rate=300305 (inst/sec) elapsed = 0:0:00:31 / Sun Feb 28 20:30:48 2016
GPGPU-Sim PTX: 9400000 instructions simulated : ctaid=(6,0,0) tid=(95,0,0)
GPGPU-Sim PTX: 9500000 instructions simulated : ctaid=(20,0,0) tid=(63,0,0)
GPGPU-Sim PTX: 9600000 instructions simulated : ctaid=(42,0,0) tid=(95,0,0)
GPGPU-Sim uArch: cycles simulated: 50500  inst.: 9625824 (ipc=190.6) sim_rate=300807 (inst/sec) elapsed = 0:0:00:32 / Sun Feb 28 20:30:49 2016
GPGPU-Sim PTX: 9700000 instructions simulated : ctaid=(42,0,0) tid=(31,0,0)
GPGPU-Sim PTX: 9800000 instructions simulated : ctaid=(56,0,0) tid=(63,0,0)
GPGPU-Sim PTX: 9900000 instructions simulated : ctaid=(28,0,0) tid=(95,0,0)
GPGPU-Sim uArch: cycles simulated: 52000  inst.: 9912768 (ipc=190.6) sim_rate=300386 (inst/sec) elapsed = 0:0:00:33 / Sun Feb 28 20:30:50 2016
GPGPU-Sim PTX: 10000000 instructions simulated : ctaid=(13,0,0) tid=(95,0,0)
GPGPU-Sim PTX: 10100000 instructions simulated : ctaid=(57,0,0) tid=(127,0,0)
GPGPU-Sim PTX: 10200000 instructions simulated : ctaid=(50,0,0) tid=(95,0,0)
GPGPU-Sim uArch: cycles simulated: 54000  inst.: 10259680 (ipc=190.0) sim_rate=301755 (inst/sec) elapsed = 0:0:00:34 / Sun Feb 28 20:30:51 2016
GPGPU-Sim PTX: 10300000 instructions simulated : ctaid=(33,0,0) tid=(31,0,0)
GPGPU-Sim PTX: 10400000 instructions simulated : ctaid=(28,0,0) tid=(63,0,0)
GPGPU-Sim PTX: 10500000 instructions simulated : ctaid=(93,0,0) tid=(31,0,0)
GPGPU-Sim uArch: cycles simulated: 55500  inst.: 10549856 (ipc=190.1) sim_rate=301424 (inst/sec) elapsed = 0:0:00:35 / Sun Feb 28 20:30:52 2016
GPGPU-Sim PTX: 10600000 instructions simulated : ctaid=(33,0,0) tid=(63,0,0)
GPGPU-Sim PTX: 10700000 instructions simulated : ctaid=(26,0,0) tid=(95,0,0)
GPGPU-Sim PTX: 10800000 instructions simulated : ctaid=(52,0,0) tid=(31,0,0)
GPGPU-Sim uArch: cycles simulated: 57000  inst.: 10832896 (ipc=190.1) sim_rate=300913 (inst/sec) elapsed = 0:0:00:36 / Sun Feb 28 20:30:53 2016
GPGPU-Sim PTX: 10900000 instructions simulated : ctaid=(28,0,0) tid=(95,0,0)
GPGPU-Sim PTX: 11000000 instructions simulated : ctaid=(63,0,0) tid=(31,0,0)
GPGPU-Sim PTX: 11100000 instructions simulated : ctaid=(80,0,0) tid=(31,0,0)
GPGPU-Sim PTX: 11200000 instructions simulated : ctaid=(25,0,0) tid=(31,0,0)
GPGPU-Sim uArch: cycles simulated: 59000  inst.: 11187776 (ipc=189.6) sim_rate=302372 (inst/sec) elapsed = 0:0:00:37 / Sun Feb 28 20:30:54 2016
GPGPU-Sim PTX: 11300000 instructions simulated : ctaid=(9,0,0) tid=(95,0,0)
GPGPU-Sim PTX: 11400000 instructions simulated : ctaid=(15,0,0) tid=(31,0,0)
GPGPU-Sim PTX: 11500000 instructions simulated : ctaid=(53,0,0) tid=(95,0,0)
GPGPU-Sim uArch: cycles simulated: 60500  inst.: 11477216 (ipc=189.7) sim_rate=302032 (inst/sec) elapsed = 0:0:00:38 / Sun Feb 28 20:30:55 2016
GPGPU-Sim PTX: 11600000 instructions simulated : ctaid=(9,0,0) tid=(63,0,0)
GPGPU-Sim PTX: 11700000 instructions simulated : ctaid=(80,0,0) tid=(31,0,0)
GPGPU-Sim PTX: 11800000 instructions simulated : ctaid=(26,0,0) tid=(95,0,0)
GPGPU-Sim uArch: cycles simulated: 62500  inst.: 11840480 (ipc=189.4) sim_rate=303602 (inst/sec) elapsed = 0:0:00:39 / Sun Feb 28 20:30:56 2016
GPGPU-Sim PTX: 11900000 instructions simulated : ctaid=(58,0,0) tid=(95,0,0)
GPGPU-Sim PTX: 12000000 instructions simulated : ctaid=(77,0,0) tid=(31,0,0)
GPGPU-Sim PTX: 12100000 instructions simulated : ctaid=(116,0,0) tid=(95,0,0)
GPGPU-Sim uArch: cycles simulated: 64000  inst.: 12112096 (ipc=189.3) sim_rate=302802 (inst/sec) elapsed = 0:0:00:40 / Sun Feb 28 20:30:57 2016
GPGPU-Sim PTX: 12200000 instructions simulated : ctaid=(12,0,0) tid=(95,0,0)
GPGPU-Sim PTX: 12300000 instructions simulated : ctaid=(9,0,0) tid=(31,0,0)
GPGPU-Sim PTX: 12400000 instructions simulated : ctaid=(11,0,0) tid=(95,0,0)
GPGPU-Sim uArch: cycles simulated: 65500  inst.: 12402848 (ipc=189.4) sim_rate=302508 (inst/sec) elapsed = 0:0:00:41 / Sun Feb 28 20:30:58 2016
GPGPU-Sim PTX: 12500000 instructions simulated : ctaid=(80,0,0) tid=(31,0,0)
GPGPU-Sim PTX: 12600000 instructions simulated : ctaid=(24,0,0) tid=(95,0,0)
GPGPU-Sim PTX: 12700000 instructions simulated : ctaid=(29,0,0) tid=(127,0,0)
GPGPU-Sim PTX: 12800000 instructions simulated : ctaid=(36,0,0) tid=(31,0,0)
GPGPU-Sim uArch: cycles simulated: 67500  inst.: 12800160 (ipc=189.6) sim_rate=304765 (inst/sec) elapsed = 0:0:00:42 / Sun Feb 28 20:30:59 2016
GPGPU-Sim PTX: 12900000 instructions simulated : ctaid=(44,0,0) tid=(63,0,0)
GPGPU-Sim PTX: 13000000 instructions simulated : ctaid=(75,0,0) tid=(31,0,0)
GPGPU-Sim uArch: cycles simulated: 69000  inst.: 13060608 (ipc=189.3) sim_rate=303735 (inst/sec) elapsed = 0:0:00:43 / Sun Feb 28 20:31:00 2016
GPGPU-Sim PTX: 13100000 instructions simulated : ctaid=(12,0,0) tid=(31,0,0)
GPGPU-Sim PTX: 13200000 instructions simulated : ctaid=(27,0,0) tid=(31,0,0)
GPGPU-Sim PTX: 13300000 instructions simulated : ctaid=(26,0,0) tid=(95,0,0)
GPGPU-Sim PTX: 13400000 instructions simulated : ctaid=(12,0,0) tid=(31,0,0)
GPGPU-Sim uArch: cycles simulated: 71000  inst.: 13450304 (ipc=189.4) sim_rate=305688 (inst/sec) elapsed = 0:0:00:44 / Sun Feb 28 20:31:01 2016
GPGPU-Sim PTX: 13500000 instructions simulated : ctaid=(65,0,0) tid=(63,0,0)
GPGPU-Sim PTX: 13600000 instructions simulated : ctaid=(11,0,0) tid=(31,0,0)
GPGPU-Sim PTX: 13700000 instructions simulated : ctaid=(89,0,0) tid=(31,0,0)
GPGPU-Sim uArch: cycles simulated: 72500  inst.: 13716928 (ipc=189.2) sim_rate=304820 (inst/sec) elapsed = 0:0:00:45 / Sun Feb 28 20:31:02 2016
GPGPU-Sim PTX: 13800000 instructions simulated : ctaid=(29,0,0) tid=(63,0,0)
GPGPU-Sim PTX: 13900000 instructions simulated : ctaid=(19,0,0) tid=(95,0,0)
GPGPU-Sim PTX: 14000000 instructions simulated : ctaid=(12,0,0) tid=(31,0,0)
GPGPU-Sim PTX: 14100000 instructions simulated : ctaid=(36,0,0) tid=(95,0,0)
GPGPU-Sim uArch: cycles simulated: 74500  inst.: 14087360 (ipc=189.1) sim_rate=306246 (inst/sec) elapsed = 0:0:00:46 / Sun Feb 28 20:31:03 2016
GPGPU-Sim PTX: 14200000 instructions simulated : ctaid=(47,0,0) tid=(95,0,0)
GPGPU-Sim PTX: 14300000 instructions simulated : ctaid=(9,0,0) tid=(127,0,0)
GPGPU-Sim PTX: 14400000 instructions simulated : ctaid=(68,0,0) tid=(31,0,0)
GPGPU-Sim uArch: cycles simulated: 76000  inst.: 14395168 (ipc=189.4) sim_rate=306280 (inst/sec) elapsed = 0:0:00:47 / Sun Feb 28 20:31:04 2016
GPGPU-Sim PTX: 14500000 instructions simulated : ctaid=(53,0,0) tid=(31,0,0)
GPGPU-Sim PTX: 14600000 instructions simulated : ctaid=(28,0,0) tid=(95,0,0)
GPGPU-Sim PTX: 14700000 instructions simulated : ctaid=(3,0,0) tid=(95,0,0)
GPGPU-Sim uArch: cycles simulated: 77500  inst.: 14702816 (ipc=189.7) sim_rate=306308 (inst/sec) elapsed = 0:0:00:48 / Sun Feb 28 20:31:05 2016
GPGPU-Sim PTX: 14800000 instructions simulated : ctaid=(27,0,0) tid=(127,0,0)
GPGPU-Sim PTX: 14900000 instructions simulated : ctaid=(33,0,0) tid=(63,0,0)
GPGPU-Sim PTX: 15000000 instructions simulated : ctaid=(29,0,0) tid=(95,0,0)
GPGPU-Sim uArch: cycles simulated: 79000  inst.: 14985184 (ipc=189.7) sim_rate=305820 (inst/sec) elapsed = 0:0:00:49 / Sun Feb 28 20:31:06 2016
GPGPU-Sim PTX: 15100000 instructions simulated : ctaid=(102,0,0) tid=(95,0,0)
GPGPU-Sim PTX: 15200000 instructions simulated : ctaid=(61,0,0) tid=(31,0,0)
GPGPU-Sim PTX: 15300000 instructions simulated : ctaid=(19,0,0) tid=(31,0,0)
GPGPU-Sim uArch: cycles simulated: 81000  inst.: 15352064 (ipc=189.5) sim_rate=307041 (inst/sec) elapsed = 0:0:00:50 / Sun Feb 28 20:31:07 2016
GPGPU-Sim PTX: 15400000 instructions simulated : ctaid=(55,0,0) tid=(95,0,0)
GPGPU-Sim PTX: 15500000 instructions simulated : ctaid=(29,0,0) tid=(63,0,0)
GPGPU-Sim PTX: 15600000 instructions simulated : ctaid=(58,0,0) tid=(63,0,0)
GPGPU-Sim uArch: cycles simulated: 82500  inst.: 15622816 (ipc=189.4) sim_rate=306329 (inst/sec) elapsed = 0:0:00:51 / Sun Feb 28 20:31:08 2016
GPGPU-Sim PTX: 15700000 instructions simulated : ctaid=(19,0,0) tid=(63,0,0)
GPGPU-Sim PTX: 15800000 instructions simulated : ctaid=(27,0,0) tid=(95,0,0)
GPGPU-Sim PTX: 15900000 instructions simulated : ctaid=(29,0,0) tid=(31,0,0)
GPGPU-Sim PTX: 16000000 instructions simulated : ctaid=(17,0,0) tid=(127,0,0)
GPGPU-Sim uArch: cycles simulated: 84500  inst.: 16016032 (ipc=189.5) sim_rate=308000 (inst/sec) elapsed = 0:0:00:52 / Sun Feb 28 20:31:09 2016
GPGPU-Sim PTX: 16100000 instructions simulated : ctaid=(38,0,0) tid=(63,0,0)
GPGPU-Sim PTX: 16200000 instructions simulated : ctaid=(25,0,0) tid=(127,0,0)
GPGPU-Sim PTX: 16300000 instructions simulated : ctaid=(37,0,0) tid=(63,0,0)
GPGPU-Sim uArch: cycles simulated: 86000  inst.: 16312896 (ipc=189.7) sim_rate=307790 (inst/sec) elapsed = 0:0:00:53 / Sun Feb 28 20:31:10 2016
GPGPU-Sim PTX: 16400000 instructions simulated : ctaid=(63,0,0) tid=(127,0,0)
GPGPU-Sim PTX: 16500000 instructions simulated : ctaid=(60,0,0) tid=(31,0,0)
GPGPU-Sim PTX: 16600000 instructions simulated : ctaid=(9,0,0) tid=(31,0,0)
GPGPU-Sim uArch: cycles simulated: 87500  inst.: 16602080 (ipc=189.7) sim_rate=307445 (inst/sec) elapsed = 0:0:00:54 / Sun Feb 28 20:31:11 2016
GPGPU-Sim PTX: 16700000 instructions simulated : ctaid=(45,0,0) tid=(127,0,0)
GPGPU-Sim PTX: 16800000 instructions simulated : ctaid=(13,0,0) tid=(95,0,0)
GPGPU-Sim PTX: 16900000 instructions simulated : ctaid=(62,0,0) tid=(31,0,0)
GPGPU-Sim uArch: cycles simulated: 89500  inst.: 16963552 (ipc=189.5) sim_rate=308428 (inst/sec) elapsed = 0:0:00:55 / Sun Feb 28 20:31:12 2016
GPGPU-Sim PTX: 17000000 instructions simulated : ctaid=(35,0,0) tid=(31,0,0)
GPGPU-Sim PTX: 17100000 instructions simulated : ctaid=(67,0,0) tid=(95,0,0)
GPGPU-Sim PTX: 17200000 instructions simulated : ctaid=(12,0,0) tid=(31,0,0)
GPGPU-Sim uArch: cycles simulated: 91000  inst.: 17249504 (ipc=189.6) sim_rate=308026 (inst/sec) elapsed = 0:0:00:56 / Sun Feb 28 20:31:13 2016
GPGPU-Sim PTX: 17300000 instructions simulated : ctaid=(97,0,0) tid=(95,0,0)
GPGPU-Sim PTX: 17400000 instructions simulated : ctaid=(5,0,0) tid=(127,0,0)
GPGPU-Sim PTX: 17500000 instructions simulated : ctaid=(17,0,0) tid=(95,0,0)
GPGPU-Sim uArch: cycles simulated: 92500  inst.: 17533312 (ipc=189.5) sim_rate=307601 (inst/sec) elapsed = 0:0:00:57 / Sun Feb 28 20:31:14 2016
GPGPU-Sim PTX: 17600000 instructions simulated : ctaid=(46,0,0) tid=(31,0,0)
GPGPU-Sim PTX: 17700000 instructions simulated : ctaid=(14,0,0) tid=(127,0,0)
GPGPU-Sim PTX: 17800000 instructions simulated : ctaid=(20,0,0) tid=(95,0,0)
GPGPU-Sim PTX: 17900000 instructions simulated : ctaid=(43,0,0) tid=(95,0,0)
GPGPU-Sim uArch: cycles simulated: 94500  inst.: 17895264 (ipc=189.4) sim_rate=308539 (inst/sec) elapsed = 0:0:00:58 / Sun Feb 28 20:31:15 2016
GPGPU-Sim PTX: 18000000 instructions simulated : ctaid=(89,0,0) tid=(95,0,0)
GPGPU-Sim PTX: 18100000 instructions simulated : ctaid=(14,0,0) tid=(63,0,0)
GPGPU-Sim PTX: 18200000 instructions simulated : ctaid=(71,0,0) tid=(31,0,0)
GPGPU-Sim uArch: cycles simulated: 96000  inst.: 18187744 (ipc=189.5) sim_rate=308266 (inst/sec) elapsed = 0:0:00:59 / Sun Feb 28 20:31:16 2016
GPGPU-Sim PTX: 18300000 instructions simulated : ctaid=(28,0,0) tid=(127,0,0)
GPGPU-Sim PTX: 18400000 instructions simulated : ctaid=(21,0,0) tid=(127,0,0)
GPGPU-Sim PTX: 18500000 instructions simulated : ctaid=(17,0,0) tid=(127,0,0)
GPGPU-Sim uArch: cycles simulated: 98000  inst.: 18550272 (ipc=189.3) sim_rate=309171 (inst/sec) elapsed = 0:0:01:00 / Sun Feb 28 20:31:17 2016
GPGPU-Sim PTX: 18600000 instructions simulated : ctaid=(22,0,0) tid=(31,0,0)
GPGPU-Sim PTX: 18700000 instructions simulated : ctaid=(0,0,0) tid=(31,0,0)
GPGPU-Sim PTX: 18800000 instructions simulated : ctaid=(24,0,0) tid=(63,0,0)
GPGPU-Sim uArch: cycles simulated: 99500  inst.: 18837088 (ipc=189.3) sim_rate=308804 (inst/sec) elapsed = 0:0:01:01 / Sun Feb 28 20:31:18 2016
GPGPU-Sim PTX: 18900000 instructions simulated : ctaid=(40,0,0) tid=(95,0,0)
GPGPU-Sim PTX: 19000000 instructions simulated : ctaid=(40,0,0) tid=(31,0,0)
GPGPU-Sim PTX: 19100000 instructions simulated : ctaid=(35,0,0) tid=(63,0,0)
GPGPU-Sim PTX: 19200000 instructions simulated : ctaid=(113,0,0) tid=(95,0,0)
GPGPU-Sim uArch: cycles simulated: 101500  inst.: 19199520 (ipc=189.2) sim_rate=309669 (inst/sec) elapsed = 0:0:01:02 / Sun Feb 28 20:31:19 2016
GPGPU-Sim PTX: 19300000 instructions simulated : ctaid=(54,0,0) tid=(95,0,0)
GPGPU-Sim PTX: 19400000 instructions simulated : ctaid=(35,0,0) tid=(95,0,0)
GPGPU-Sim PTX: 19500000 instructions simulated : ctaid=(15,0,0) tid=(127,0,0)
GPGPU-Sim uArch: cycles simulated: 103000  inst.: 19494592 (ipc=189.3) sim_rate=309437 (inst/sec) elapsed = 0:0:01:03 / Sun Feb 28 20:31:20 2016
GPGPU-Sim PTX: 19600000 instructions simulated : ctaid=(52,0,0) tid=(95,0,0)
GPGPU-Sim PTX: 19700000 instructions simulated : ctaid=(43,0,0) tid=(31,0,0)
GPGPU-Sim PTX: 19800000 instructions simulated : ctaid=(5,0,0) tid=(127,0,0)
GPGPU-Sim uArch: cycles simulated: 104500  inst.: 19791264 (ipc=189.4) sim_rate=309238 (inst/sec) elapsed = 0:0:01:04 / Sun Feb 28 20:31:21 2016
GPGPU-Sim PTX: 19900000 instructions simulated : ctaid=(68,0,0) tid=(95,0,0)
GPGPU-Sim PTX: 20000000 instructions simulated : ctaid=(21,0,0) tid=(95,0,0)
GPGPU-Sim PTX: 20100000 instructions simulated : ctaid=(15,0,0) tid=(95,0,0)
GPGPU-Sim uArch: cycles simulated: 106500  inst.: 20161632 (ipc=189.3) sim_rate=310178 (inst/sec) elapsed = 0:0:01:05 / Sun Feb 28 20:31:22 2016
GPGPU-Sim PTX: 20200000 instructions simulated : ctaid=(10,0,0) tid=(95,0,0)
GPGPU-Sim PTX: 20300000 instructions simulated : ctaid=(46,0,0) tid=(31,0,0)
GPGPU-Sim PTX: 20400000 instructions simulated : ctaid=(87,0,0) tid=(31,0,0)
GPGPU-Sim uArch: cycles simulated: 108000  inst.: 20450944 (ipc=189.4) sim_rate=309862 (inst/sec) elapsed = 0:0:01:06 / Sun Feb 28 20:31:23 2016
GPGPU-Sim PTX: 20500000 instructions simulated : ctaid=(15,0,0) tid=(31,0,0)
GPGPU-Sim PTX: 20600000 instructions simulated : ctaid=(15,0,0) tid=(127,0,0)
GPGPU-Sim PTX: 20700000 instructions simulated : ctaid=(33,0,0) tid=(63,0,0)
GPGPU-Sim uArch: cycles simulated: 109500  inst.: 20738176 (ipc=189.4) sim_rate=309525 (inst/sec) elapsed = 0:0:01:07 / Sun Feb 28 20:31:24 2016
GPGPU-Sim PTX: 20800000 instructions simulated : ctaid=(47,0,0) tid=(31,0,0)
GPGPU-Sim PTX: 20900000 instructions simulated : ctaid=(77,0,0) tid=(95,0,0)
GPGPU-Sim PTX: 21000000 instructions simulated : ctaid=(74,0,0) tid=(31,0,0)
GPGPU-Sim PTX: 21100000 instructions simulated : ctaid=(0,0,0) tid=(95,0,0)
GPGPU-Sim uArch: cycles simulated: 111500  inst.: 21098752 (ipc=189.2) sim_rate=310275 (inst/sec) elapsed = 0:0:01:08 / Sun Feb 28 20:31:25 2016
GPGPU-Sim PTX: 21200000 instructions simulated : ctaid=(65,0,0) tid=(31,0,0)
GPGPU-Sim PTX: 21300000 instructions simulated : ctaid=(48,0,0) tid=(95,0,0)
GPGPU-Sim uArch: cycles simulated: 113000  inst.: 21361216 (ipc=189.0) sim_rate=309582 (inst/sec) elapsed = 0:0:01:09 / Sun Feb 28 20:31:26 2016
GPGPU-Sim PTX: 21400000 instructions simulated : ctaid=(86,0,0) tid=(31,0,0)
GPGPU-Sim PTX: 21500000 instructions simulated : ctaid=(11,0,0) tid=(95,0,0)
GPGPU-Sim PTX: 21600000 instructions simulated : ctaid=(9,0,0) tid=(127,0,0)
GPGPU-Sim uArch: cycles simulated: 114500  inst.: 21657920 (ipc=189.2) sim_rate=309398 (inst/sec) elapsed = 0:0:01:10 / Sun Feb 28 20:31:27 2016
GPGPU-Sim PTX: 21700000 instructions simulated : ctaid=(0,0,0) tid=(127,0,0)
GPGPU-Sim PTX: 21800000 instructions simulated : ctaid=(27,0,0) tid=(95,0,0)
GPGPU-Sim PTX: 21900000 instructions simulated : ctaid=(85,0,0) tid=(31,0,0)
GPGPU-Sim PTX: 22000000 instructions simulated : ctaid=(99,0,0) tid=(95,0,0)
GPGPU-Sim uArch: cycles simulated: 116500  inst.: 22048128 (ipc=189.3) sim_rate=310537 (inst/sec) elapsed = 0:0:01:11 / Sun Feb 28 20:31:28 2016
GPGPU-Sim PTX: 22100000 instructions simulated : ctaid=(61,0,0) tid=(31,0,0)
GPGPU-Sim PTX: 22200000 instructions simulated : ctaid=(4,0,0) tid=(95,0,0)
GPGPU-Sim PTX: 22300000 instructions simulated : ctaid=(69,0,0) tid=(95,0,0)
GPGPU-Sim uArch: cycles simulated: 118000  inst.: 22346752 (ipc=189.4) sim_rate=310371 (inst/sec) elapsed = 0:0:01:12 / Sun Feb 28 20:31:29 2016
GPGPU-Sim PTX: 22400000 instructions simulated : ctaid=(19,0,0) tid=(95,0,0)
GPGPU-Sim PTX: 22500000 instructions simulated : ctaid=(5,0,0) tid=(31,0,0)
GPGPU-Sim PTX: 22600000 instructions simulated : ctaid=(59,0,0) tid=(31,0,0)
GPGPU-Sim PTX: 22700000 instructions simulated : ctaid=(58,0,0) tid=(95,0,0)
GPGPU-Sim uArch: cycles simulated: 120000  inst.: 22699264 (ipc=189.2) sim_rate=310948 (inst/sec) elapsed = 0:0:01:13 / Sun Feb 28 20:31:30 2016
GPGPU-Sim PTX: 22800000 instructions simulated : ctaid=(9,0,0) tid=(95,0,0)
GPGPU-Sim PTX: 22900000 instructions simulated : ctaid=(18,0,0) tid=(95,0,0)
GPGPU-Sim PTX: 23000000 instructions simulated : ctaid=(26,0,0) tid=(31,0,0)
GPGPU-Sim uArch: cycles simulated: 121500  inst.: 23002976 (ipc=189.3) sim_rate=310851 (inst/sec) elapsed = 0:0:01:14 / Sun Feb 28 20:31:31 2016
GPGPU-Sim PTX: 23100000 instructions simulated : ctaid=(0,0,0) tid=(31,0,0)
GPGPU-Sim PTX: 23200000 instructions simulated : ctaid=(76,0,0) tid=(95,0,0)
GPGPU-Sim PTX: 23300000 instructions simulated : ctaid=(20,0,0) tid=(95,0,0)
GPGPU-Sim uArch: cycles simulated: 123000  inst.: 23293376 (ipc=189.4) sim_rate=310578 (inst/sec) elapsed = 0:0:01:15 / Sun Feb 28 20:31:32 2016
GPGPU-Sim PTX: 23400000 instructions simulated : ctaid=(53,0,0) tid=(95,0,0)
GPGPU-Sim PTX: 23500000 instructions simulated : ctaid=(28,0,0) tid=(95,0,0)
GPGPU-Sim PTX: 23600000 instructions simulated : ctaid=(43,0,0) tid=(31,0,0)
GPGPU-Sim uArch: cycles simulated: 125000  inst.: 23667968 (ipc=189.3) sim_rate=311420 (inst/sec) elapsed = 0:0:01:16 / Sun Feb 28 20:31:33 2016
GPGPU-Sim PTX: 23700000 instructions simulated : ctaid=(31,0,0) tid=(31,0,0)
GPGPU-Sim PTX: 23800000 instructions simulated : ctaid=(16,0,0) tid=(127,0,0)
GPGPU-Sim PTX: 23900000 instructions simulated : ctaid=(48,0,0) tid=(95,0,0)
GPGPU-Sim uArch: cycles simulated: 126500  inst.: 23934688 (ipc=189.2) sim_rate=310840 (inst/sec) elapsed = 0:0:01:17 / Sun Feb 28 20:31:34 2016
GPGPU-Sim PTX: 24000000 instructions simulated : ctaid=(103,0,0) tid=(95,0,0)
GPGPU-Sim PTX: 24100000 instructions simulated : ctaid=(110,0,0) tid=(31,0,0)
GPGPU-Sim PTX: 24200000 instructions simulated : ctaid=(51,0,0) tid=(31,0,0)
GPGPU-Sim uArch: cycles simulated: 128000  inst.: 24226816 (ipc=189.3) sim_rate=310600 (inst/sec) elapsed = 0:0:01:18 / Sun Feb 28 20:31:35 2016
GPGPU-Sim PTX: 24300000 instructions simulated : ctaid=(50,0,0) tid=(127,0,0)
GPGPU-Sim PTX: 24400000 instructions simulated : ctaid=(1,0,0) tid=(63,0,0)
GPGPU-Sim PTX: 24500000 instructions simulated : ctaid=(33,0,0) tid=(95,0,0)
GPGPU-Sim PTX: 24600000 instructions simulated : ctaid=(21,0,0) tid=(95,0,0)
GPGPU-Sim uArch: cycles simulated: 130000  inst.: 24580544 (ipc=189.1) sim_rate=311146 (inst/sec) elapsed = 0:0:01:19 / Sun Feb 28 20:31:36 2016
GPGPU-Sim PTX: 24700000 instructions simulated : ctaid=(32,0,0) tid=(95,0,0)
GPGPU-Sim PTX: 24800000 instructions simulated : ctaid=(3,0,0) tid=(127,0,0)
GPGPU-Sim PTX: 24900000 instructions simulated : ctaid=(29,0,0) tid=(95,0,0)
GPGPU-Sim uArch: cycles simulated: 131500  inst.: 24886016 (ipc=189.2) sim_rate=311075 (inst/sec) elapsed = 0:0:01:20 / Sun Feb 28 20:31:37 2016
GPGPU-Sim PTX: 25000000 instructions simulated : ctaid=(29,0,0) tid=(31,0,0)
GPGPU-Sim PTX: 25100000 instructions simulated : ctaid=(41,0,0) tid=(95,0,0)
GPGPU-Sim uArch: cycles simulated: 133000  inst.: 25146944 (ipc=189.1) sim_rate=310456 (inst/sec) elapsed = 0:0:01:21 / Sun Feb 28 20:31:38 2016
GPGPU-Sim PTX: 25200000 instructions simulated : ctaid=(70,0,0) tid=(95,0,0)
GPGPU-Sim PTX: 25300000 instructions simulated : ctaid=(81,0,0) tid=(31,0,0)
GPGPU-Sim PTX: 25400000 instructions simulated : ctaid=(88,0,0) tid=(31,0,0)
GPGPU-Sim PTX: 25500000 instructions simulated : ctaid=(3,0,0) tid=(127,0,0)
GPGPU-Sim uArch: cycles simulated: 135000  inst.: 25516064 (ipc=189.0) sim_rate=311171 (inst/sec) elapsed = 0:0:01:22 / Sun Feb 28 20:31:39 2016
GPGPU-Sim PTX: 25600000 instructions simulated : ctaid=(119,0,0) tid=(31,0,0)
GPGPU-Sim PTX: 25700000 instructions simulated : ctaid=(73,0,0) tid=(63,0,0)
GPGPU-Sim PTX: 25800000 instructions simulated : ctaid=(100,0,0) tid=(31,0,0)
GPGPU-Sim uArch: cycles simulated: 136500  inst.: 25787424 (ipc=188.9) sim_rate=310691 (inst/sec) elapsed = 0:0:01:23 / Sun Feb 28 20:31:40 2016
GPGPU-Sim PTX: 25900000 instructions simulated : ctaid=(39,0,0) tid=(63,0,0)
GPGPU-Sim PTX: 26000000 instructions simulated : ctaid=(29,0,0) tid=(31,0,0)
GPGPU-Sim PTX: 26100000 instructions simulated : ctaid=(92,0,0) tid=(31,0,0)
GPGPU-Sim uArch: cycles simulated: 138500  inst.: 26139232 (ipc=188.7) sim_rate=311181 (inst/sec) elapsed = 0:0:01:24 / Sun Feb 28 20:31:41 2016
GPGPU-Sim PTX: 26200000 instructions simulated : ctaid=(23,0,0) tid=(127,0,0)
GPGPU-Sim PTX: 26300000 instructions simulated : ctaid=(12,0,0) tid=(31,0,0)
GPGPU-Sim PTX: 26400000 instructions simulated : ctaid=(89,0,0) tid=(31,0,0)
GPGPU-Sim uArch: cycles simulated: 140000  inst.: 26404064 (ipc=188.6) sim_rate=310636 (inst/sec) elapsed = 0:0:01:25 / Sun Feb 28 20:31:42 2016
GPGPU-Sim PTX: 26500000 instructions simulated : ctaid=(101,0,0) tid=(31,0,0)
GPGPU-Sim PTX: 26600000 instructions simulated : ctaid=(2,0,0) tid=(127,0,0)
GPGPU-Sim PTX: 26700000 instructions simulated : ctaid=(48,0,0) tid=(95,0,0)
GPGPU-Sim uArch: cycles simulated: 142000  inst.: 26752224 (ipc=188.4) sim_rate=311072 (inst/sec) elapsed = 0:0:01:26 / Sun Feb 28 20:31:43 2016
GPGPU-Sim PTX: 26800000 instructions simulated : ctaid=(69,0,0) tid=(95,0,0)
GPGPU-Sim PTX: 26900000 instructions simulated : ctaid=(62,0,0) tid=(31,0,0)
GPGPU-Sim PTX: 27000000 instructions simulated : ctaid=(81,0,0) tid=(95,0,0)
GPGPU-Sim uArch: cycles simulated: 143500  inst.: 26990688 (ipc=188.1) sim_rate=310237 (inst/sec) elapsed = 0:0:01:27 / Sun Feb 28 20:31:44 2016
GPGPU-Sim PTX: 27100000 instructions simulated : ctaid=(48,0,0) tid=(63,0,0)
GPGPU-Sim PTX: 27200000 instructions simulated : ctaid=(27,0,0) tid=(63,0,0)
GPGPU-Sim PTX: 27300000 instructions simulated : ctaid=(74,0,0) tid=(31,0,0)
GPGPU-Sim uArch: cycles simulated: 145500  inst.: 27307648 (ipc=187.7) sim_rate=310314 (inst/sec) elapsed = 0:0:01:28 / Sun Feb 28 20:31:45 2016
GPGPU-Sim PTX: 27400000 instructions simulated : ctaid=(33,0,0) tid=(127,0,0)
GPGPU-Sim PTX: 27500000 instructions simulated : ctaid=(38,0,0) tid=(127,0,0)
GPGPU-Sim PTX: 27600000 instructions simulated : ctaid=(43,0,0) tid=(127,0,0)
GPGPU-Sim PTX: 27700000 instructions simulated : ctaid=(9,0,0) tid=(127,0,0)
GPGPU-Sim uArch: cycles simulated: 147500  inst.: 27698656 (ipc=187.8) sim_rate=311220 (inst/sec) elapsed = 0:0:01:29 / Sun Feb 28 20:31:46 2016
GPGPU-Sim PTX: 27800000 instructions simulated : ctaid=(55,0,0) tid=(127,0,0)
GPGPU-Sim PTX: 27900000 instructions simulated : ctaid=(54,0,0) tid=(31,0,0)
GPGPU-Sim uArch: cycles simulated: 149000  inst.: 27949728 (ipc=187.6) sim_rate=310552 (inst/sec) elapsed = 0:0:01:30 / Sun Feb 28 20:31:47 2016
GPGPU-Sim PTX: 28000000 instructions simulated : ctaid=(71,0,0) tid=(31,0,0)
GPGPU-Sim PTX: 28100000 instructions simulated : ctaid=(38,0,0) tid=(63,0,0)
GPGPU-Sim PTX: 28200000 instructions simulated : ctaid=(49,0,0) tid=(31,0,0)
GPGPU-Sim PTX: 28300000 instructions simulated : ctaid=(52,0,0) tid=(63,0,0)
GPGPU-Sim uArch: cycles simulated: 151000  inst.: 28296544 (ipc=187.4) sim_rate=310951 (inst/sec) elapsed = 0:0:01:31 / Sun Feb 28 20:31:48 2016
GPGPU-Sim PTX: 28400000 instructions simulated : ctaid=(72,0,0) tid=(95,0,0)
GPGPU-Sim PTX: 28500000 instructions simulated : ctaid=(74,0,0) tid=(127,0,0)
GPGPU-Sim PTX: 28600000 instructions simulated : ctaid=(51,0,0) tid=(95,0,0)
GPGPU-Sim uArch: cycles simulated: 153000  inst.: 28618080 (ipc=187.0) sim_rate=311066 (inst/sec) elapsed = 0:0:01:32 / Sun Feb 28 20:31:49 2016
GPGPU-Sim PTX: 28700000 instructions simulated : ctaid=(72,0,0) tid=(31,0,0)
GPGPU-Sim PTX: 28800000 instructions simulated : ctaid=(71,0,0) tid=(63,0,0)
GPGPU-Sim PTX: 28900000 instructions simulated : ctaid=(51,0,0) tid=(31,0,0)
GPGPU-Sim uArch: cycles simulated: 154500  inst.: 28870976 (ipc=186.9) sim_rate=310440 (inst/sec) elapsed = 0:0:01:33 / Sun Feb 28 20:31:50 2016
GPGPU-Sim PTX: 29000000 instructions simulated : ctaid=(31,0,0) tid=(127,0,0)
GPGPU-Sim PTX: 29100000 instructions simulated : ctaid=(78,0,0) tid=(95,0,0)
GPGPU-Sim PTX: 29200000 instructions simulated : ctaid=(64,0,0) tid=(95,0,0)
GPGPU-Sim uArch: cycles simulated: 156500  inst.: 29228864 (ipc=186.8) sim_rate=310945 (inst/sec) elapsed = 0:0:01:34 / Sun Feb 28 20:31:51 2016
GPGPU-Sim PTX: 29300000 instructions simulated : ctaid=(17,0,0) tid=(31,0,0)
GPGPU-Sim PTX: 29400000 instructions simulated : ctaid=(7,0,0) tid=(63,0,0)
GPGPU-Sim PTX: 29500000 instructions simulated : ctaid=(47,0,0) tid=(31,0,0)
GPGPU-Sim PTX: 29600000 instructions simulated : ctaid=(23,0,0) tid=(127,0,0)
GPGPU-Sim uArch: cycles simulated: 158500  inst.: 29572672 (ipc=186.6) sim_rate=311291 (inst/sec) elapsed = 0:0:01:35 / Sun Feb 28 20:31:52 2016
GPGPU-Sim PTX: 29700000 instructions simulated : ctaid=(117,0,0) tid=(95,0,0)
GPGPU-Sim PTX: 29800000 instructions simulated : ctaid=(31,0,0) tid=(63,0,0)
GPGPU-Sim uArch: cycles simulated: 160000  inst.: 29846080 (ipc=186.5) sim_rate=310896 (inst/sec) elapsed = 0:0:01:36 / Sun Feb 28 20:31:53 2016
GPGPU-Sim PTX: 29900000 instructions simulated : ctaid=(74,0,0) tid=(95,0,0)
GPGPU-Sim PTX: 30000000 instructions simulated : ctaid=(117,0,0) tid=(31,0,0)
GPGPU-Sim PTX: 30100000 instructions simulated : ctaid=(98,0,0) tid=(95,0,0)
GPGPU-Sim PTX: 30200000 instructions simulated : ctaid=(4,0,0) tid=(63,0,0)
GPGPU-Sim uArch: Shader 13 finished CTA #0 (161886,0), 7 CTAs running
GPGPU-Sim uArch: core: 13, cta: 0 initialized @(161887,0)
GPGPU-Sim uArch: cycles simulated: 162000  inst.: 30193280 (ipc=186.4) sim_rate=311270 (inst/sec) elapsed = 0:0:01:37 / Sun Feb 28 20:31:54 2016
GPGPU-Sim PTX: 30300000 instructions simulated : ctaid=(36,0,0) tid=(63,0,0)
GPGPU-Sim uArch: Shader 0 finished CTA #0 (163022,0), 7 CTAs running
GPGPU-Sim uArch: core:  0, cta: 0 initialized @(163023,0)
GPGPU-Sim PTX: 30400000 instructions simulated : ctaid=(63,0,0) tid=(31,0,0)
GPGPU-Sim uArch: cycles simulated: 163500  inst.: 30461088 (ipc=186.3) sim_rate=310827 (inst/sec) elapsed = 0:0:01:38 / Sun Feb 28 20:31:55 2016
GPGPU-Sim PTX: 30500000 instructions simulated : ctaid=(87,0,0) tid=(31,0,0)
GPGPU-Sim PTX: 30600000 instructions simulated : ctaid=(44,0,0) tid=(63,0,0)
GPGPU-Sim PTX: 30700000 instructions simulated : ctaid=(52,0,0) tid=(63,0,0)
GPGPU-Sim PTX: 30800000 instructions simulated : ctaid=(16,0,0) tid=(127,0,0)
GPGPU-Sim uArch: Shader 14 finished CTA #0 (165308,0), 7 CTAs running
GPGPU-Sim uArch: core: 14, cta: 0 initialized @(165309,0)
GPGPU-Sim uArch: cycles simulated: 165500  inst.: 30835616 (ipc=186.3) sim_rate=311470 (inst/sec) elapsed = 0:0:01:39 / Sun Feb 28 20:31:56 2016
GPGPU-Sim PTX: 30900000 instructions simulated : ctaid=(101,0,0) tid=(95,0,0)
GPGPU-Sim PTX: 31000000 instructions simulated : ctaid=(88,0,0) tid=(63,0,0)
GPGPU-Sim uArch: Shader 8 finished CTA #0 (166472,0), 7 CTAs running
GPGPU-Sim uArch: core:  8, cta: 0 initialized @(166473,0)
GPGPU-Sim uArch: Shader 11 finished CTA #0 (166503,0), 7 CTAs running
GPGPU-Sim uArch: core: 11, cta: 0 initialized @(166504,0)
GPGPU-Sim PTX: 31100000 instructions simulated : ctaid=(85,0,0) tid=(95,0,0)
GPGPU-Sim uArch: cycles simulated: 167000  inst.: 31086272 (ipc=186.1) sim_rate=310862 (inst/sec) elapsed = 0:0:01:40 / Sun Feb 28 20:31:57 2016
GPGPU-Sim PTX: 31200000 instructions simulated : ctaid=(104,0,0) tid=(31,0,0)
GPGPU-Sim PTX: 31300000 instructions simulated : ctaid=(26,0,0) tid=(63,0,0)
GPGPU-Sim PTX: 31400000 instructions simulated : ctaid=(67,0,0) tid=(63,0,0)
GPGPU-Sim PTX: 31500000 instructions simulated : ctaid=(101,0,0) tid=(31,0,0)
GPGPU-Sim uArch: cycles simulated: 169000  inst.: 31466496 (ipc=186.2) sim_rate=311549 (inst/sec) elapsed = 0:0:01:41 / Sun Feb 28 20:31:58 2016
GPGPU-Sim uArch: Shader 6 finished CTA #0 (169063,0), 7 CTAs running
GPGPU-Sim uArch: core:  6, cta: 0 initialized @(169064,0)
GPGPU-Sim PTX: 31600000 instructions simulated : ctaid=(82,0,0) tid=(95,0,0)
GPGPU-Sim PTX: 31700000 instructions simulated : ctaid=(90,0,0) tid=(31,0,0)
GPGPU-Sim uArch: cycles simulated: 170500  inst.: 31754752 (ipc=186.2) sim_rate=311321 (inst/sec) elapsed = 0:0:01:42 / Sun Feb 28 20:31:59 2016
GPGPU-Sim PTX: 31800000 instructions simulated : ctaid=(69,0,0) tid=(63,0,0)
GPGPU-Sim PTX: 31900000 instructions simulated : ctaid=(121,0,0) tid=(95,0,0)
GPGPU-Sim PTX: 32000000 instructions simulated : ctaid=(85,0,0) tid=(31,0,0)
GPGPU-Sim uArch: Shader 2 finished CTA #0 (171528,0), 7 CTAs running
GPGPU-Sim uArch: core:  2, cta: 0 initialized @(171529,0)
GPGPU-Sim PTX: 32100000 instructions simulated : ctaid=(84,0,0) tid=(31,0,0)
GPGPU-Sim uArch: cycles simulated: 172500  inst.: 32137536 (ipc=186.3) sim_rate=312014 (inst/sec) elapsed = 0:0:01:43 / Sun Feb 28 20:32:00 2016
GPGPU-Sim PTX: 32200000 instructions simulated : ctaid=(70,0,0) tid=(31,0,0)
GPGPU-Sim PTX: 32300000 instructions simulated : ctaid=(103,0,0) tid=(95,0,0)
GPGPU-Sim uArch: Shader 7 finished CTA #0 (173156,0), 7 CTAs running
GPGPU-Sim uArch: core:  7, cta: 0 initialized @(173157,0)
GPGPU-Sim uArch: Shader 14 finished CTA #1 (173483,0), 7 CTAs running
GPGPU-Sim uArch: core: 14, cta: 1 initialized @(173484,0)
GPGPU-Sim PTX: 32400000 instructions simulated : ctaid=(111,0,0) tid=(95,0,0)
GPGPU-Sim uArch: cycles simulated: 174000  inst.: 32428704 (ipc=186.4) sim_rate=311814 (inst/sec) elapsed = 0:0:01:44 / Sun Feb 28 20:32:01 2016
GPGPU-Sim PTX: 32500000 instructions simulated : ctaid=(87,0,0) tid=(63,0,0)
GPGPU-Sim PTX: 32600000 instructions simulated : ctaid=(108,0,0) tid=(31,0,0)
GPGPU-Sim PTX: 32700000 instructions simulated : ctaid=(114,0,0) tid=(31,0,0)
GPGPU-Sim uArch: Shader 1 finished CTA #0 (175698,0), 7 CTAs running
GPGPU-Sim uArch: core:  1, cta: 0 initialized @(175699,0)
GPGPU-Sim PTX: 32800000 instructions simulated : ctaid=(73,0,0) tid=(127,0,0)
GPGPU-Sim uArch: cycles simulated: 176000  inst.: 32793184 (ipc=186.3) sim_rate=312316 (inst/sec) elapsed = 0:0:01:45 / Sun Feb 28 20:32:02 2016
GPGPU-Sim PTX: 32900000 instructions simulated : ctaid=(84,0,0) tid=(95,0,0)
GPGPU-Sim uArch: Shader 12 finished CTA #0 (176581,0), 7 CTAs running
GPGPU-Sim uArch: core: 12, cta: 0 initialized @(176582,0)
GPGPU-Sim uArch: Shader 9 finished CTA #0 (176661,0), 7 CTAs running
GPGPU-Sim uArch: core:  9, cta: 0 initialized @(176662,0)
GPGPU-Sim PTX: 33000000 instructions simulated : ctaid=(48,0,0) tid=(63,0,0)
GPGPU-Sim PTX: 33100000 instructions simulated : ctaid=(59,0,0) tid=(63,0,0)
GPGPU-Sim uArch: cycles simulated: 177500  inst.: 33093504 (ipc=186.4) sim_rate=312202 (inst/sec) elapsed = 0:0:01:46 / Sun Feb 28 20:32:03 2016
GPGPU-Sim uArch: Shader 10 finished CTA #0 (177861,0), 7 CTAs running
GPGPU-Sim uArch: core: 10, cta: 0 initialized @(177862,0)
GPGPU-Sim PTX: 33200000 instructions simulated : ctaid=(132,0,0) tid=(95,0,0)
GPGPU-Sim PTX: 33300000 instructions simulated : ctaid=(94,0,0) tid=(95,0,0)
GPGPU-Sim uArch: Shader 13 finished CTA #1 (178645,0), 7 CTAs running
GPGPU-Sim uArch: core: 13, cta: 1 initialized @(178646,0)
GPGPU-Sim uArch: Shader 12 finished CTA #1 (178978,0), 7 CTAs running
GPGPU-Sim uArch: core: 12, cta: 1 initialized @(178979,0)
GPGPU-Sim PTX: 33400000 instructions simulated : ctaid=(19,0,0) tid=(127,0,0)
GPGPU-Sim uArch: Shader 3 finished CTA #0 (179254,0), 7 CTAs running
GPGPU-Sim uArch: core:  3, cta: 0 initialized @(179255,0)
GPGPU-Sim uArch: cycles simulated: 179500  inst.: 33434528 (ipc=186.3) sim_rate=312472 (inst/sec) elapsed = 0:0:01:47 / Sun Feb 28 20:32:04 2016
GPGPU-Sim PTX: 33500000 instructions simulated : ctaid=(30,0,0) tid=(63,0,0)
GPGPU-Sim PTX: 33600000 instructions simulated : ctaid=(112,0,0) tid=(95,0,0)
GPGPU-Sim uArch: Shader 7 finished CTA #1 (180369,0), 7 CTAs running
GPGPU-Sim uArch: core:  7, cta: 1 initialized @(180370,0)
GPGPU-Sim PTX: 33700000 instructions simulated : ctaid=(70,0,0) tid=(127,0,0)
GPGPU-Sim uArch: Shader 11 finished CTA #1 (180681,0), 7 CTAs running
GPGPU-Sim uArch: core: 11, cta: 1 initialized @(180682,0)
GPGPU-Sim uArch: Shader 4 finished CTA #0 (180717,0), 7 CTAs running
GPGPU-Sim uArch: core:  4, cta: 0 initialized @(180718,0)
GPGPU-Sim PTX: 33800000 instructions simulated : ctaid=(74,0,0) tid=(63,0,0)
GPGPU-Sim uArch: cycles simulated: 181000  inst.: 33767200 (ipc=186.6) sim_rate=312659 (inst/sec) elapsed = 0:0:01:48 / Sun Feb 28 20:32:05 2016
GPGPU-Sim PTX: 33900000 instructions simulated : ctaid=(52,0,0) tid=(127,0,0)
GPGPU-Sim PTX: 34000000 instructions simulated : ctaid=(65,0,0) tid=(127,0,0)
GPGPU-Sim PTX: 34100000 instructions simulated : ctaid=(109,0,0) tid=(95,0,0)
GPGPU-Sim uArch: cycles simulated: 183000  inst.: 34115296 (ipc=186.4) sim_rate=312984 (inst/sec) elapsed = 0:0:01:49 / Sun Feb 28 20:32:06 2016
GPGPU-Sim PTX: 34200000 instructions simulated : ctaid=(89,0,0) tid=(31,0,0)
GPGPU-Sim PTX: 34300000 instructions simulated : ctaid=(79,0,0) tid=(31,0,0)
GPGPU-Sim PTX: 34400000 instructions simulated : ctaid=(30,0,0) tid=(127,0,0)
GPGPU-Sim uArch: cycles simulated: 184500  inst.: 34414432 (ipc=186.5) sim_rate=312858 (inst/sec) elapsed = 0:0:01:50 / Sun Feb 28 20:32:07 2016
GPGPU-Sim PTX: 34500000 instructions simulated : ctaid=(115,0,0) tid=(63,0,0)
GPGPU-Sim PTX: 34600000 instructions simulated : ctaid=(111,0,0) tid=(31,0,0)
GPGPU-Sim uArch: Shader 6 finished CTA #1 (185499,0), 7 CTAs running
GPGPU-Sim uArch: core:  6, cta: 1 initialized @(185500,0)
GPGPU-Sim uArch: Shader 9 finished CTA #1 (185505,0), 7 CTAs running
GPGPU-Sim uArch: core:  9, cta: 1 initialized @(185506,0)
GPGPU-Sim PTX: 34700000 instructions simulated : ctaid=(103,0,0) tid=(127,0,0)
GPGPU-Sim PTX: 34800000 instructions simulated : ctaid=(45,0,0) tid=(63,0,0)
GPGPU-Sim uArch: Shader 5 finished CTA #1 (186312,0), 7 CTAs running
GPGPU-Sim uArch: core:  5, cta: 1 initialized @(186313,0)
GPGPU-Sim uArch: Shader 5 finished CTA #0 (186489,0), 7 CTAs running
GPGPU-Sim uArch: core:  5, cta: 0 initialized @(186490,0)
GPGPU-Sim uArch: cycles simulated: 186500  inst.: 34798112 (ipc=186.6) sim_rate=313496 (inst/sec) elapsed = 0:0:01:51 / Sun Feb 28 20:32:08 2016
GPGPU-Sim PTX: 34900000 instructions simulated : ctaid=(88,0,0) tid=(63,0,0)
GPGPU-Sim uArch: Shader 2 finished CTA #1 (186855,0), 7 CTAs running
GPGPU-Sim uArch: core:  2, cta: 1 initialized @(186856,0)
GPGPU-Sim uArch: Shader 8 finished CTA #1 (187279,0), 7 CTAs running
GPGPU-Sim uArch: core:  8, cta: 1 initialized @(187280,0)
GPGPU-Sim PTX: 35000000 instructions simulated : ctaid=(98,0,0) tid=(63,0,0)
GPGPU-Sim PTX: 35100000 instructions simulated : ctaid=(128,0,0) tid=(31,0,0)
GPGPU-Sim uArch: cycles simulated: 188000  inst.: 35075200 (ipc=186.6) sim_rate=313171 (inst/sec) elapsed = 0:0:01:52 / Sun Feb 28 20:32:09 2016
GPGPU-Sim uArch: Shader 10 finished CTA #1 (188124,0), 7 CTAs running
GPGPU-Sim uArch: core: 10, cta: 1 initialized @(188125,0)
GPGPU-Sim PTX: 35200000 instructions simulated : ctaid=(122,0,0) tid=(95,0,0)
GPGPU-Sim uArch: Shader 4 finished CTA #1 (188867,0), 7 CTAs running
GPGPU-Sim uArch: core:  4, cta: 1 initialized @(188868,0)
GPGPU-Sim PTX: 35300000 instructions simulated : ctaid=(65,0,0) tid=(63,0,0)
GPGPU-Sim PTX: 35400000 instructions simulated : ctaid=(100,0,0) tid=(31,0,0)
GPGPU-Sim uArch: cycles simulated: 189500  inst.: 35398656 (ipc=186.8) sim_rate=313262 (inst/sec) elapsed = 0:0:01:53 / Sun Feb 28 20:32:10 2016
GPGPU-Sim PTX: 35500000 instructions simulated : ctaid=(126,0,0) tid=(31,0,0)
GPGPU-Sim PTX: 35600000 instructions simulated : ctaid=(116,0,0) tid=(31,0,0)
GPGPU-Sim PTX: 35700000 instructions simulated : ctaid=(84,0,0) tid=(63,0,0)
GPGPU-Sim uArch: Shader 13 finished CTA #2 (191252,0), 7 CTAs running
GPGPU-Sim uArch: core: 13, cta: 2 initialized @(191253,0)
GPGPU-Sim uArch: Shader 0 finished CTA #1 (191285,0), 7 CTAs running
GPGPU-Sim uArch: core:  0, cta: 1 initialized @(191286,0)
GPGPU-Sim PTX: 35800000 instructions simulated : ctaid=(79,0,0) tid=(31,0,0)
GPGPU-Sim uArch: cycles simulated: 191500  inst.: 35760128 (ipc=186.7) sim_rate=313685 (inst/sec) elapsed = 0:0:01:54 / Sun Feb 28 20:32:11 2016
GPGPU-Sim uArch: Shader 14 finished CTA #2 (191685,0), 7 CTAs running
GPGPU-Sim uArch: core: 14, cta: 2 initialized @(191686,0)
GPGPU-Sim uArch: Shader 3 finished CTA #1 (191692,0), 7 CTAs running
GPGPU-Sim uArch: core:  3, cta: 1 initialized @(191693,0)
GPGPU-Sim PTX: 35900000 instructions simulated : ctaid=(116,0,0) tid=(95,0,0)
GPGPU-Sim PTX: 36000000 instructions simulated : ctaid=(54,0,0) tid=(127,0,0)
GPGPU-Sim uArch: cycles simulated: 193000  inst.: 36040800 (ipc=186.7) sim_rate=313398 (inst/sec) elapsed = 0:0:01:55 / Sun Feb 28 20:32:12 2016
GPGPU-Sim PTX: 36100000 instructions simulated : ctaid=(98,0,0) tid=(31,0,0)
GPGPU-Sim uArch: Shader 1 finished CTA #1 (193144,0), 7 CTAs running
GPGPU-Sim uArch: core:  1, cta: 1 initialized @(193145,0)
GPGPU-Sim PTX: 36200000 instructions simulated : ctaid=(109,0,0) tid=(31,0,0)
GPGPU-Sim PTX: 36300000 instructions simulated : ctaid=(114,0,0) tid=(95,0,0)
GPGPU-Sim PTX: 36400000 instructions simulated : ctaid=(85,0,0) tid=(63,0,0)
GPGPU-Sim uArch: cycles simulated: 195000  inst.: 36456512 (ipc=187.0) sim_rate=314280 (inst/sec) elapsed = 0:0:01:56 / Sun Feb 28 20:32:13 2016
GPGPU-Sim PTX: 36500000 instructions simulated : ctaid=(49,0,0) tid=(63,0,0)
GPGPU-Sim PTX: 36600000 instructions simulated : ctaid=(145,0,0) tid=(95,0,0)
GPGPU-Sim PTX: 36700000 instructions simulated : ctaid=(110,0,0) tid=(63,0,0)
GPGPU-Sim uArch: cycles simulated: 196500  inst.: 36727584 (ipc=186.9) sim_rate=313910 (inst/sec) elapsed = 0:0:01:57 / Sun Feb 28 20:32:14 2016
GPGPU-Sim PTX: 36800000 instructions simulated : ctaid=(48,0,0) tid=(63,0,0)
GPGPU-Sim uArch: Shader 9 finished CTA #2 (196808,0), 7 CTAs running
GPGPU-Sim uArch: core:  9, cta: 2 initialized @(196809,0)
GPGPU-Sim uArch: Shader 6 finished CTA #2 (196886,0), 7 CTAs running
GPGPU-Sim uArch: core:  6, cta: 2 initialized @(196887,0)
GPGPU-Sim uArch: Shader 11 finished CTA #2 (196894,0), 7 CTAs running
GPGPU-Sim uArch: core: 11, cta: 2 initialized @(196895,0)
GPGPU-Sim PTX: 36900000 instructions simulated : ctaid=(55,0,0) tid=(63,0,0)
GPGPU-Sim PTX: 37000000 instructions simulated : ctaid=(130,0,0) tid=(31,0,0)
GPGPU-Sim uArch: cycles simulated: 198000  inst.: 37009824 (ipc=186.9) sim_rate=313642 (inst/sec) elapsed = 0:0:01:58 / Sun Feb 28 20:32:15 2016
GPGPU-Sim PTX: 37100000 instructions simulated : ctaid=(36,0,0) tid=(127,0,0)
GPGPU-Sim PTX: 37200000 instructions simulated : ctaid=(83,0,0) tid=(95,0,0)
GPGPU-Sim uArch: Shader 2 finished CTA #2 (199016,0), 7 CTAs running
GPGPU-Sim uArch: core:  2, cta: 2 initialized @(199017,0)
GPGPU-Sim PTX: 37300000 instructions simulated : ctaid=(49,0,0) tid=(63,0,0)
GPGPU-Sim PTX: 37400000 instructions simulated : ctaid=(79,0,0) tid=(127,0,0)
GPGPU-Sim uArch: cycles simulated: 200000  inst.: 37407488 (ipc=187.0) sim_rate=314348 (inst/sec) elapsed = 0:0:01:59 / Sun Feb 28 20:32:16 2016
GPGPU-Sim PTX: 37500000 instructions simulated : ctaid=(111,0,0) tid=(63,0,0)
GPGPU-Sim PTX: 37600000 instructions simulated : ctaid=(131,0,0) tid=(95,0,0)
GPGPU-Sim PTX: 37700000 instructions simulated : ctaid=(77,0,0) tid=(127,0,0)
GPGPU-Sim uArch: cycles simulated: 201500  inst.: 37688512 (ipc=187.0) sim_rate=314070 (inst/sec) elapsed = 0:0:02:00 / Sun Feb 28 20:32:17 2016
GPGPU-Sim PTX: 37800000 instructions simulated : ctaid=(118,0,0) tid=(127,0,0)
GPGPU-Sim PTX: 37900000 instructions simulated : ctaid=(84,0,0) tid=(127,0,0)
GPGPU-Sim PTX: 38000000 instructions simulated : ctaid=(110,0,0) tid=(31,0,0)
GPGPU-Sim PTX: 38100000 instructions simulated : ctaid=(76,0,0) tid=(127,0,0)
GPGPU-Sim uArch: Shader 10 finished CTA #2 (203481,0), 7 CTAs running
GPGPU-Sim uArch: core: 10, cta: 2 initialized @(203482,0)
GPGPU-Sim uArch: cycles simulated: 203500  inst.: 38091200 (ipc=187.2) sim_rate=314803 (inst/sec) elapsed = 0:0:02:01 / Sun Feb 28 20:32:18 2016
GPGPU-Sim PTX: 38200000 instructions simulated : ctaid=(49,0,0) tid=(63,0,0)
GPGPU-Sim PTX: 38300000 instructions simulated : ctaid=(112,0,0) tid=(95,0,0)
GPGPU-Sim PTX: 38400000 instructions simulated : ctaid=(59,0,0) tid=(127,0,0)
GPGPU-Sim uArch: cycles simulated: 205000  inst.: 38358976 (ipc=187.1) sim_rate=314417 (inst/sec) elapsed = 0:0:02:02 / Sun Feb 28 20:32:19 2016
GPGPU-Sim uArch: Shader 0 finished CTA #2 (205178,0), 7 CTAs running
GPGPU-Sim uArch: core:  0, cta: 2 initialized @(205179,0)
GPGPU-Sim PTX: 38500000 instructions simulated : ctaid=(75,0,0) tid=(127,0,0)
GPGPU-Sim PTX: 38600000 instructions simulated : ctaid=(147,0,0) tid=(31,0,0)
GPGPU-Sim PTX: 38700000 instructions simulated : ctaid=(69,0,0) tid=(127,0,0)
GPGPU-Sim uArch: cycles simulated: 206500  inst.: 38679520 (ipc=187.3) sim_rate=314467 (inst/sec) elapsed = 0:0:02:03 / Sun Feb 28 20:32:20 2016
GPGPU-Sim uArch: Shader 4 finished CTA #2 (206513,0), 7 CTAs running
GPGPU-Sim uArch: core:  4, cta: 2 initialized @(206514,0)
GPGPU-Sim PTX: 38800000 instructions simulated : ctaid=(117,0,0) tid=(95,0,0)
GPGPU-Sim PTX: 38900000 instructions simulated : ctaid=(125,0,0) tid=(95,0,0)
GPGPU-Sim uArch: Shader 7 finished CTA #2 (207564,0), 7 CTAs running
GPGPU-Sim uArch: core:  7, cta: 2 initialized @(207565,0)
[...]
dq_lat_table:0 	0 	0 	0 	0 	0 	0 	0 	0 	0 	0 	0 	0 	0 	0 	0 	0 	0 	0 	0 	0 	0 	0 	0 	0 	0 	0 	0 	0 	0 	0 	0 	
mf_lat_table:0 	0 	0 	0 	0 	0 	0 	0 	3531 	13794 	142131 	151956 	1103 	0 	0 	0 	0 	0 	0 	0 	0 	0 	0 	0 	0 	0 	0 	0 	0 	0 	0 	0 	
icnt2mem_lat_table:0 	0 	0 	10088 	2654 	10051 	23616 	22711 	56147 	117403 	68548 	1417 	0 	0 	0 	0 	0 	0 	0 	0 	0 	0 	0 	0 	
icnt2sh_lat_table:0 	0 	0 	179336 	8168 	11 	0 	0 	0 	0 	0 	0 	392 	853 	1954 	3935 	8020 	15810 	32168 	61868 	0 	0 	0 	0 	
mf_lat_pw_table:0 	0 	0 	0 	0 	0 	0 	0 	30 	20 	677 	1339 	0 	0 	0 	0 	0 	0 	0 	0 	0 	0 	0 	0 	0 	0 	0 	0 	0 	0 	0 	0 	
maximum concurrent accesses to same row:
dram[0]:        26        26        14        16        20        20        32        44        16        20        26        28        32        30        20        18 
dram[1]:        20        26        20        14        22        20        32        42        22        16        22        30        32        30        22        16 
dram[2]:        26        26        16        14        30        24        32        42        12        18        28        32        32        30        28        18 
dram[3]:        26        26        14        14        26        24        32        34        14        10        28        22        32        30        24        20 
dram[4]:        26        26        14        14        20        22        40        32        22        20        28        30        30        30        18        18 
dram[5]:        26        26        14        16        26        22        38        32        14        14        28        26        30        30        22        20 
maximum service time to same row:
dram[0]:      6499      6994     10675      8721      5719      4489      4423      5047     14678     11324      4120      4280      7215     10410     12469      8538 
dram[1]:      3597      7033     12285      8410      5713      4310      4299      4410     11128     10628      3831      5153      8859      7443     11089      8477 
dram[2]:      3939      7370      8646      8462      4297      4278      4324      5332      8223     10081      4373      4606      7450      5540      8645      9475 
dram[3]:      4747      6796     10383      7908      4397      4303      4685      4353      8946     10192      4856      4274      6466      5513      8992      8619 
dram[4]:      6439      5904      8692     12035      4679      4243      4278      4275      8413     12213      4725      3862      6615      8361      8066      8033 
dram[5]:      6764      6336      7721      9064      4732      4245      4260      4291     10131      8227      4700      4515      6527      6488      7755      8463 
average row accesses per activate:
dram[0]:  1.521462  1.522338  1.502498  1.510040  1.524386  1.515212  1.536602  1.567123  1.523302  1.511728  1.532485  1.540222  1.533512  1.526860  1.528390  1.520771 
dram[1]:  1.503979  1.494723  1.489601  1.486166  1.490790  1.501657  1.530947  1.520771  1.487646  1.492012  1.508737  1.509733  1.512727  1.511229  1.518248  1.519256 
dram[2]:  1.529848  1.523361  1.505506  1.501997  1.522849  1.525732  1.540741  1.558052  1.510231  1.515734  1.528901  1.524317  1.540222  1.527880  1.530435  1.531972 
dram[3]:  1.494071  1.504149  1.478375  1.484699  1.498182  1.503979  1.517241  1.518752  1.482345  1.490554  1.504274  1.495914  1.508240  1.511728  1.499345  1.507246 
dram[4]:  1.512846  1.527469  1.509535  1.514094  1.511674  1.518581  1.529923  1.550661  1.504274  1.512727  1.526860  1.540222  1.526860  1.527370  1.519761  1.526860 
dram[5]:  1.491938  1.494723  1.479829  1.481287  1.492262  1.506476  1.510231  1.527370  1.488614  1.492498  1.500328  1.504274  1.505759  1.512227  1.496892  1.510730 
average row locality = 437509/289159 = 1.513040
number of total memory accesses made:
dram[0]:         0         0         0         0         0         0         0         0         0         0         0         0         0         0         0         0 
dram[1]:         0         0         0         0         0         0         0         0         0         0         0         0         0         0         0         0 
dram[2]:         0         0         0         0         0         0         0         0         0         0         0         0         0         0         0         0 
dram[3]:         0         0         0         0         0         0         0         0         0         0         0         0         0         0         0         0 
dram[4]:         0         0         0         0         0         0         0         0         0         0         0         0         0         0         0         0 
dram[5]:         0         0         0         0         0         0         0         0         0         0         0         0         0         0         0         0 
total accesses: 0
min_bank_accesses = 0!
min_chip_accesses = 0!
number of total read accesses:
dram[0]:      3251      3246      3232      3232      3242      3242      3264      3264      3264      3264      3264      3264      3264      3264      3264      3264 
dram[1]:      3250      3246      3232      3232      3242      3242      3264      3264      3264      3264      3264      3264      3264      3264      3264      3264 
dram[2]:      3250      3246      3232      3232      3242      3244      3264      3264      3264      3264      3264      3264      3264      3264      3264      3264 
dram[3]:      3250      3246      3232      3232      3242      3244      3264      3264      3264      3264      3264      3264      3264      3264      3264      3264 
dram[4]:      3248      3246      3232      3232      3242      3244      3264      3264      3264      3264      3264      3264      3264      3264      3264      3264 
dram[5]:      3248      3246      3232      3232      3242      3244      3264      3264      3264      3264      3264      3264      3264      3264      3264      3264 
total reads: 312509
bank skew: 3264/3232 = 1.01
chip skew: 52086/52084 = 1.00
number of total write accesses:
dram[0]:      1286      1286      1280      1280      1290      1290      1312      1312      1312      1312      1312      1312      1312      1312      1312      1312 
dram[1]:      1286      1286      1280      1280      1290      1290      1312      1312      1312      1312      1312      1312      1312      1312      1312      1312 
dram[2]:      1286      1286      1280      1280      1290      1292      1312      1312      1312      1312      1312      1312      1312      1312      1312      1312 
dram[3]:      1286      1286      1280      1280      1290      1292      1312      1312      1312      1312      1312      1312      1312      1312      1312      1312 
dram[4]:      1286      1286      1280      1280      1290      1292      1312      1312      1312      1312      1312      1312      1312      1312      1312      1312 
dram[5]:      1286      1286      1280      1280      1290      1292      1312      1312      1312      1312      1312      1312      1312      1312      1312      1312 
total reads: 125000
bank skew: 1312/1280 = 1.02
chip skew: 20834/20832 = 1.00
average mf latency per bank:
dram[0]:       1402      1472      1463      1476      1453      1502      1469      1567      1441      1470      1428      1498      1453      1504      1497      1580
dram[1]:       1334      1377      1362      1385      1363      1406      1390      1445      1336      1365      1368      1390      1355      1406      1428      1473
dram[2]:       1575      1483      1618      1498      1604      1530      1637      1598      1600      1501      1585      1516      1627      1530      1687      1609
dram[3]:       1167      1192      1183      1217      1206      1228      1221      1273      1170      1208      1173      1206      1197      1241      1232      1288
dram[4]:       1720      1837      1758      1866      1772      1876      1768      1930      1734      1851      1742      1847      1743      1890      1812      1978
dram[5]:       1266      1322      1289      1365      1299      1363      1332      1425      1272      1347      1298      1338      1314      1384      1341      1430
maximum mf latency per bank:
dram[0]:       5445      4934      5441      4816      5608      5135      4767      5112      5035      5356      5950      5262      5083      4702      6411      4546
dram[1]:       4286      4696      4079      4558      4695      4710      4456      4686      5595      4641      4615      4565      4259      4759      4888      4879
dram[2]:       4756      4806      5169      4380      5186      4620      6377      5404      4492      5325      4815      4600      5262      4862      5584      5459
dram[3]:       3878      3835      3741      3840      4682      4088      4202      4703      3819      4069      4155      3675      4417      4195      4404      4062
dram[4]:       5146      6017      5166      6920      4884      5042      4599      5376      5228      4854      4645      5055      5711      4941      5060      6082
dram[5]:       3982      4771      3822      4100      5250      5085      4031      4827      4378      4294      4132      4599      4042      4822      3924      4395

Number of Memory Banks Accessed per Memory Operation per Warp (from 0):
0	0	0	0	0	0	0	0	0	0	0	0	0	0	0	0	0	0	0	0	0	0	0	0	0	0	0	0	0	0	0	0	0	0	0	0	0	0	0	0	0	0	0	0	0	0	0	0	0	0	0	0	0	0	0	0	0	0	0	0	0	0	0	0	0	0	0	0	0	0	0	0	0	0	0	0	0	0	0	0	0	0	0	0	0	0	0	0	0	0	0	0	0	0	0	0	
Average # of Memory Banks Accessed per Memory Operation per Warp=-nan

position of mrq chosen
0	0	0	0	0	0	0	0	0	0	0	0	0	0	0	0	

average position of mrq chosen = -nan
Memory Partition 0: 
Cache L2_bank_000:
MSHR contents

Cache L2_bank_001:
MSHR contents

In Dram Latency Queue (total = 0): 
DRAM[0]: 16 bks, busW=1 BL=8 CL=12, tRRD=2 tCCD=6, tRCD=12 tRAS=28 tRP=12 tRC=40
n_cmd=1364676 n_nop=685788 n_act=47784 n_pre=47768 n_req=72917 n_rd=416680 n_write=166656 bw_util=0.8549
n_activity=1351196 dram_eff=0.8634
bk0: 26008a 688138i bk1: 25968a 647502i bk2: 25856a 636117i bk3: 25856a 612796i bk4: 25936a 573549i bk5: 25936a 560165i bk6: 26112a 497932i bk7: 26112a 439178i bk8: 26112a 667787i bk9: 26112a 656517i bk10: 26112a 632590i bk11: 26112a 592946i bk12: 26112a 564672i bk13: 26112a 536559i bk14: 26112a 493160i bk15: 26112a 425922i 
dram_util_bins: 0 0 0 0 0 0 0 0 0 0
dram_eff_bins: 0 0 0 0 0 0 0 0 0 0
mrqq: max=16 avg=15.586
Memory Partition 1: 
Cache L2_bank_002:
MSHR contents

Cache L2_bank_003:
MSHR contents

In Dram Latency Queue (total = 0): 
DRAM[1]: 16 bks, busW=1 BL=8 CL=12, tRRD=2 tCCD=6, tRCD=12 tRAS=28 tRP=12 tRC=40
n_cmd=1364676 n_nop=684454 n_act=48455 n_pre=48439 n_req=72916 n_rd=416672 n_write=166656 bw_util=0.8549
n_activity=1354424 dram_eff=0.8614
bk0: 26000a 698057i bk1: 25968a 667225i bk2: 25856a 640205i bk3: 25856a 621721i bk4: 25936a 595213i bk5: 25936a 562949i bk6: 26112a 513897i bk7: 26112a 459703i bk8: 26112a 681215i bk9: 26112a 650715i bk10: 26112a 637757i bk11: 26112a 615879i bk12: 26112a 580692i bk13: 26112a 543452i bk14: 26112a 513440i bk15: 26112a 452267i 
dram_util_bins: 0 0 0 0 0 0 0 0 0 0
dram_eff_bins: 0 0 0 0 0 0 0 0 0 0
mrqq: max=16 avg=15.4543
Memory Partition 2: 
Cache L2_bank_004:
MSHR contents

Cache L2_bank_005:
MSHR contents

In Dram Latency Queue (total = 0): 
DRAM[2]: 16 bks, busW=1 BL=8 CL=12, tRRD=2 tCCD=6, tRCD=12 tRAS=28 tRP=12 tRC=40
n_cmd=1364676 n_nop=685764 n_act=47784 n_pre=47768 n_req=72920 n_rd=416688 n_write=166672 bw_util=0.8549
n_activity=1351427 dram_eff=0.8633
bk0: 26000a 689183i bk1: 25968a 661088i bk2: 25856a 642124i bk3: 25856a 609026i bk4: 25936a 578290i bk5: 25952a 544424i bk6: 26112a 505390i bk7: 26112a 445793i bk8: 26112a 673350i bk9: 26112a 638062i bk10: 26112a 636614i bk11: 26112a 588684i bk12: 26112a 572640i bk13: 26112a 532525i bk14: 26112a 491928i bk15: 26112a 442402i 
dram_util_bins: 0 0 0 0 0 0 0 0 0 0
dram_eff_bins: 0 0 0 0 0 0 0 0 0 0
mrqq: max=16 avg=15.607
Memory Partition 3: 
Cache L2_bank_006:
MSHR contents

Cache L2_bank_007:
MSHR contents

In Dram Latency Queue (total = 0): 
DRAM[3]: 16 bks, busW=1 BL=8 CL=12, tRRD=2 tCCD=6, tRCD=12 tRAS=28 tRP=12 tRC=40
n_cmd=1364676 n_nop=684098 n_act=48617 n_pre=48601 n_req=72920 n_rd=416688 n_write=166672 bw_util=0.8549
n_activity=1354645 dram_eff=0.8613
bk0: 26000a 694065i bk1: 25968a 661628i bk2: 25856a 627189i bk3: 25856a 609285i bk4: 25936a 579937i bk5: 25952a 536522i bk6: 26112a 507125i bk7: 26112a 441666i bk8: 26112a 666462i bk9: 26112a 650287i bk10: 26112a 640607i bk11: 26112a 603830i bk12: 26112a 566477i bk13: 26112a 530384i bk14: 26112a 499759i bk15: 26112a 445392i 
dram_util_bins: 0 0 0 0 0 0 0 0 0 0
dram_eff_bins: 0 0 0 0 0 0 0 0 0 0
mrqq: max=16 avg=15.2981
Memory Partition 4: 
Cache L2_bank_008:
MSHR contents

Cache L2_bank_009:
MSHR contents

In Dram Latency Queue (total = 0): 
DRAM[4]: 16 bks, busW=1 BL=8 CL=12, tRRD=2 tCCD=6, tRCD=12 tRAS=28 tRP=12 tRC=40
n_cmd=1364676 n_nop=685556 n_act=47896 n_pre=47880 n_req=72918 n_rd=416672 n_write=166672 bw_util=0.8549
n_activity=1351522 dram_eff=0.8632
bk0: 25984a 693714i bk1: 25968a 667759i bk2: 25856a 628654i bk3: 25856a 614282i bk4: 25936a 588861i bk5: 25952a 555934i bk6: 26112a 517030i bk7: 26112a 444599i bk8: 26112a 672855i bk9: 26112a 659170i bk10: 26112a 626887i bk11: 26112a 614393i bk12: 26112a 576705i bk13: 26112a 536265i bk14: 26112a 502074i bk15: 26112a 439998i 
dram_util_bins: 0 0 0 0 0 0 0 0 0 0
dram_eff_bins: 0 0 0 0 0 0 0 0 0 0
mrqq: max=16 avg=15.7097
Memory Partition 5: 
Cache L2_bank_010:
MSHR contents
MSHR: tag=0x80f20d80, atomic=0 1 entries : 0x7f0e5cf17b20 :  mf: uid=17931657, sid01:w31, part=5, addr=0x80f20d80, load , size=128, unknown  status = IN_PARTITION_DRAM (1033845), 

Cache L2_bank_011:
MSHR contents

In Dram Latency Queue (total = 0): 
DRAM[5]: 16 bks, busW=1 BL=8 CL=12, tRRD=2 tCCD=6, tRCD=12 tRAS=28 tRP=12 tRC=40
n_cmd=1364676 n_nop=684107 n_act=48623 n_pre=48607 n_req=72918 n_rd=416667 n_write=166672 bw_util=0.8549
n_activity=1354443 dram_eff=0.8614
bk0: 25984a 697548i bk1: 25968a 661024i bk2: 25856a 640377i bk3: 25856a 613834i bk4: 25936a 595287i bk5: 25952a 562915i bk6: 26112a 511357i bk7: 26112a 453523i bk8: 26112a 683714i bk9: 26112a 651886i bk10: 26107a 633786i bk11: 26112a 607567i bk12: 26112a 573240i bk13: 26112a 544460i bk14: 26112a 510268i bk15: 26112a 455115i 
dram_util_bins: 0 0 0 0 0 0 0 0 0 0
dram_eff_bins: 0 0 0 0 0 0 0 0 0 0
mrqq: max=16 avg=15.3013

========= L2 cache stats =========
L2_cache_bank[0]: Access = 26087, Miss = 26045, Miss_rate = 0.998, Pending_hits = 9, Reservation_fails = 81065
L2_cache_bank[1]: Access = 26040, Miss = 26040, Miss_rate = 1.000, Pending_hits = 0, Reservation_fails = 87841
L2_cache_bank[2]: Access = 26072, Miss = 26044, Miss_rate = 0.999, Pending_hits = 6, Reservation_fails = 4511
L2_cache_bank[3]: Access = 26040, Miss = 26040, Miss_rate = 1.000, Pending_hits = 0, Reservation_fails = 7537
L2_cache_bank[4]: Access = 26072, Miss = 26044, Miss_rate = 0.999, Pending_hits = 6, Reservation_fails = 69560
L2_cache_bank[5]: Access = 26042, Miss = 26042, Miss_rate = 1.000, Pending_hits = 0, Reservation_fails = 97818
L2_cache_bank[6]: Access = 26072, Miss = 26044, Miss_rate = 0.999, Pending_hits = 6, Reservation_fails = 17132
L2_cache_bank[7]: Access = 26042, Miss = 26042, Miss_rate = 1.000, Pending_hits = 0, Reservation_fails = 12477
L2_cache_bank[8]: Access = 26042, Miss = 26042, Miss_rate = 1.000, Pending_hits = 0, Reservation_fails = 117099
L2_cache_bank[9]: Access = 26042, Miss = 26042, Miss_rate = 1.000, Pending_hits = 0, Reservation_fails = 203024
L2_cache_bank[10]: Access = 26042, Miss = 26042, Miss_rate = 1.000, Pending_hits = 0, Reservation_fails = 14526
L2_cache_bank[11]: Access = 26042, Miss = 26042, Miss_rate = 1.000, Pending_hits = 0, Reservation_fails = 37833
L2_total_cache_accesses = 312635
L2_total_cache_misses = 312509
L2_total_cache_miss_rate = 0.9996
L2_total_cache_pending_hits = 27
L2_total_cache_reservation_fails = 750423
L2_total_cache_breakdown:
	L2_cache_stats_breakdown[GLOBAL_ACC_R][MISS] = 187500
	L2_cache_stats_breakdown[GLOBAL_ACC_R][RESERVATION_FAIL] = 442388
	L2_cache_stats_breakdown[CONST_ACC_R][HIT] = 11
	L2_cache_stats_breakdown[CONST_ACC_R][HIT_RESERVED] = 3
	L2_cache_stats_breakdown[CONST_ACC_R][MISS] = 1
	L2_cache_stats_breakdown[CONST_ACC_R][RESERVATION_FAIL] = 122
	L2_cache_stats_breakdown[GLOBAL_ACC_W][MISS] = 125000
	L2_cache_stats_breakdown[GLOBAL_ACC_W][RESERVATION_FAIL] = 306285
	L2_cache_stats_breakdown[INST_ACC_R][HIT] = 88
	L2_cache_stats_breakdown[INST_ACC_R][HIT_RESERVED] = 24
	L2_cache_stats_breakdown[INST_ACC_R][MISS] = 8
	L2_cache_stats_breakdown[INST_ACC_R][RESERVATION_FAIL] = 1628
L2_cache_data_port_util = 0.000
L2_cache_fill_port_util = 0.101

icnt_total_pkts_mem_to_simt=1063145
icnt_total_pkts_simt_to_mem=812635
LD_mem_lat_dist  0 0 0 0 0 0 0 0 0 0 0 0 0 0 0 0 0 0 0 0 0 0 0 0 0 0 0
ST_mem_lat_dist  0 0 0 0 0 0 0 0 0 0 0 0 0 0 0 0 0 0 0 0 0 0 0 0 0 0 0
----------------------------Interconnect-DETAILS--------------------------------
Class 0:
Packet latency average = 160.585
	minimum = 6
	maximum = 2639
Network latency average = 103.239
	minimum = 6
	maximum = 2015
Slowest packet = 4039
Flit latency average = 74.3243
	minimum = 6
	maximum = 1960
Slowest flit = 243992
Fragmentation average = 2.84268
	minimum = 0
	maximum = 1533
Injected packet rate average = 0.0224
	minimum = 0.0195281 (at node 5)
	maximum = 0.025233 (at node 15)
Accepted packet rate average = 0.0224
	minimum = 0.0195281 (at node 5)
	maximum = 0.025233 (at node 15)
Injected flit rate average = 0.0671989
	minimum = 0.050759 (at node 5)
	maximum = 0.0858358 (at node 15)
Accepted flit rate average= 0.0671989
	minimum = 0.0654875 (at node 16)
	maximum = 0.0706827 (at node 9)
Injected packet length average = 2.99995
Accepted packet length average = 2.99995
Total in-flight flits = 0 (0 measured)
====== Overall Traffic Statistics ======
====== Traffic class 0 ======
Packet latency average = 160.585 (1 samples)
	minimum = 6 (1 samples)
	maximum = 2639 (1 samples)
Network latency average = 103.239 (1 samples)
	minimum = 6 (1 samples)
	maximum = 2015 (1 samples)
Flit latency average = 74.3243 (1 samples)
	minimum = 6 (1 samples)
	maximum = 1960 (1 samples)
Fragmentation average = 2.84268 (1 samples)
	minimum = 0 (1 samples)
	maximum = 1533 (1 samples)
Injected packet rate average = 0.0224 (1 samples)
	minimum = 0.0195281 (1 samples)
	maximum = 0.025233 (1 samples)
Accepted packet rate average = 0.0224 (1 samples)
	minimum = 0.0195281 (1 samples)
	maximum = 0.025233 (1 samples)
Injected flit rate average = 0.0671989 (1 samples)
	minimum = 0.050759 (1 samples)
	maximum = 0.0858358 (1 samples)
Accepted flit rate average = 0.0671989 (1 samples)
	minimum = 0.0654875 (1 samples)
	maximum = 0.0706827 (1 samples)
Injected packet size average = 2.99995 (1 samples)
Accepted packet size average = 2.99995 (1 samples)
Hops average = 1 (1 samples)
----------------------------END-of-Interconnect-DETAILS-------------------------


gpgpu_simulation_time = 0 days, 0 hrs, 10 min, 14 sec (614 sec)
gpgpu_simulation_rate = 318862 (inst/sec)
gpgpu_simulation_rate = 1683 (cycle/sec)
GPGPU-Sim API: Stream Manager State
GPGPU-Sim: detected inactive GPU simulation thread
Options count             : 4000000     
BlackScholesGPU() time    : 612029.000000 msec
Effective memory bandwidth: 0.000065 GB/s
Gigaoptions per second    : 0.000007     
Reading back GPU results...
Checking the results...
...running CPU calculations.
Comparing the results...
L1 norm: 1.729535E-07
Max absolute error: 1.192093E-05
TEST PASSED
Shutting down...
...releasing GPU memory.
...releasing CPU memory.
Shutdown done.
GPGPU-Sim: exit_simulation called
GPGPU-Sim: simulation thread signaled exit

Press ENTER to exit...
