

        *** GPGPU-Sim Simulator Version 3.2.2  [build 0] ***


GPGPU-Sim PTX: simulation mode 0 (can change with PTX_SIM_MODE_FUNC environment variable:
               1=functional simulation only, 0=detailed performance simulator)
GPGPU-Sim: Configuration options:

-network_mode                           1 # Interconnection network mode
-inter_config_file   config_fermi_islip.icnt # Interconnection network config file
-gpgpu_ptx_use_cuobjdump                    1 # Use cuobjdump to extract ptx and sass from binaries
-gpgpu_experimental_lib_support                    0 # Try to extract code from cuda libraries [Broken because of unknown cudaGetExportTable]
-gpgpu_ptx_convert_to_ptxplus                    0 # Convert SASS (native ISA) to ptxplus and run ptxplus
-gpgpu_ptx_force_max_capability                   20 # Force maximum compute capability
-gpgpu_ptx_inst_debug_to_file                    0 # Dump executed instructions' debug information to file
-gpgpu_ptx_inst_debug_file       inst_debug.txt # Executed instructions' debug output file
-gpgpu_ptx_inst_debug_thread_uid                    1 # Thread UID for executed instructions' debug output
-gpgpu_simd_model                       1 # 1 = post-dominator
-gpgpu_shader_core_pipeline              1536:32 # shader core pipeline config, i.e., {<nthread>:<warpsize>}
-gpgpu_tex_cache:l1  4:128:24,L:R:m:N:L,F:128:4,128:2 # per-shader L1 texture cache  (READ-ONLY) config  {<nsets>:<bsize>:<assoc>,<rep>:<wr>:<alloc>:<wr_alloc>,<mshr>:<N>:<merge>,<mq>:<rf>}
-gpgpu_const_cache:l1 64:64:2,L:R:f:N:L,A:2:32,4 # per-shader L1 constant memory cache  (READ-ONLY) config  {<nsets>:<bsize>:<assoc>,<rep>:<wr>:<alloc>:<wr_alloc>,<mshr>:<N>:<merge>,<mq>} 
-gpgpu_cache:il1     4:128:4,L:R:f:N:L,A:2:32,4 # shader L1 instruction cache config  {<nsets>:<bsize>:<assoc>,<rep>:<wr>:<alloc>:<wr_alloc>,<mshr>:<N>:<merge>,<mq>} 
-gpgpu_cache:dl1     32:128:4,L:L:m:N:H,A:32:8,8 # per-shader L1 data cache config  {<nsets>:<bsize>:<assoc>,<rep>:<wr>:<alloc>:<wr_alloc>,<mshr>:<N>:<merge>,<mq> | none}
-gpgpu_cache:dl1PrefL1                 none # per-shader L1 data cache config  {<nsets>:<bsize>:<assoc>,<rep>:<wr>:<alloc>:<wr_alloc>,<mshr>:<N>:<merge>,<mq> | none}
-gpgpu_cache:dl1PreShared                 none # per-shader L1 data cache config  {<nsets>:<bsize>:<assoc>,<rep>:<wr>:<alloc>:<wr_alloc>,<mshr>:<N>:<merge>,<mq> | none}
-gmem_skip_L1D                          0 # global memory access skip L1D cache (implements -Xptxas -dlcm=cg, default=no skip)
-gpgpu_perfect_mem                      0 # enable perfect memory mode (no cache miss)
-n_regfile_gating_group                    4 # group of lanes that should be read/written together)
-gpgpu_clock_gated_reg_file                    0 # enable clock gated reg file for power calculations
-gpgpu_clock_gated_lanes                    0 # enable clock gated lanes for power calculations
-gpgpu_shader_registers                32768 # Number of registers per shader core. Limits number of concurrent CTAs. (default 8192)
-gpgpu_shader_cta                       8 # Maximum number of concurrent CTAs in shader (default 8)
-gpgpu_num_cta_barriers                   16 # Maximum number of named barriers per CTA (default 16)
-gpgpu_n_clusters                      15 # number of processing clusters
-gpgpu_n_cores_per_cluster                    1 # number of simd cores per cluster
-gpgpu_n_cluster_ejection_buffer_size                    8 # number of packets in ejection buffer
-gpgpu_n_ldst_response_buffer_size                    2 # number of response packets in ld/st unit ejection buffer
-gpgpu_shmem_size                   16384 # Size of shared memory per shader core (default 16kB)
-gpgpu_shmem_size                   49152 # Size of shared memory per shader core (default 16kB)
-gpgpu_shmem_size_PrefL1                16384 # Size of shared memory per shader core (default 16kB)
-gpgpu_shmem_size_PrefShared                16384 # Size of shared memory per shader core (default 16kB)
-gpgpu_shmem_num_banks                   32 # Number of banks in the shared memory in each shader core (default 16)
-gpgpu_shmem_limited_broadcast                    0 # Limit shared memory to do one broadcast per cycle (default on)
-gpgpu_shmem_warp_parts                    1 # Number of portions a warp is divided into for shared memory bank conflict check 
-gpgpu_warpdistro_shader                   -1 # Specify which shader core to collect the warp size distribution from
-gpgpu_warp_issue_shader                    0 # Specify which shader core to collect the warp issue distribution from
-gpgpu_local_mem_map                    1 # Mapping from local memory space address to simulated GPU physical address space (default = enabled)
-gpgpu_num_reg_banks                   16 # Number of register banks (default = 8)
-gpgpu_reg_bank_use_warp_id                    0 # Use warp ID in mapping registers to banks (default = off)
-gpgpu_operand_collector_num_units_sp                    6 # number of collector units (default = 4)
-gpgpu_operand_collector_num_units_sfu                    8 # number of collector units (default = 4)
-gpgpu_operand_collector_num_units_mem                    2 # number of collector units (default = 2)
-gpgpu_operand_collector_num_units_gen                    0 # number of collector units (default = 0)
-gpgpu_operand_collector_num_in_ports_sp                    2 # number of collector unit in ports (default = 1)
-gpgpu_operand_collector_num_in_ports_sfu                    1 # number of collector unit in ports (default = 1)
-gpgpu_operand_collector_num_in_ports_mem                    1 # number of collector unit in ports (default = 1)
-gpgpu_operand_collector_num_in_ports_gen                    0 # number of collector unit in ports (default = 0)
-gpgpu_operand_collector_num_out_ports_sp                    2 # number of collector unit in ports (default = 1)
-gpgpu_operand_collector_num_out_ports_sfu                    1 # number of collector unit in ports (default = 1)
-gpgpu_operand_collector_num_out_ports_mem                    1 # number of collector unit in ports (default = 1)
-gpgpu_operand_collector_num_out_ports_gen                    0 # number of collector unit in ports (default = 0)
-gpgpu_coalesce_arch                   13 # Coalescing arch (default = 13, anything else is off for now)
-gpgpu_num_sched_per_core                    2 # Number of warp schedulers per core
-gpgpu_max_insn_issue_per_warp                    1 # Max number of instructions that can be issued per warp in one cycle by scheduler
-gpgpu_simt_core_sim_order                    1 # Select the simulation order of cores in a cluster (0=Fix, 1=Round-Robin)
-gpgpu_pipeline_widths        2,1,1,2,1,1,2 # Pipeline widths ID_OC_SP,ID_OC_SFU,ID_OC_MEM,OC_EX_SP,OC_EX_SFU,OC_EX_MEM,EX_WB
-gpgpu_num_sp_units                     2 # Number of SP units (default=1)
-gpgpu_num_sfu_units                    1 # Number of SF units (default=1)
-gpgpu_num_mem_units                    1 # Number if ldst units (default=1) WARNING: not hooked up to anything
-gpgpu_scheduler                      gto # Scheduler configuration: < lrr | gto | two_level_active > If two_level_active:<num_active_warps>:<inner_prioritization>:<outer_prioritization>For complete list of prioritization values see shader.h enum scheduler_prioritization_typeDefault: gto
-gpgpu_dram_scheduler                    1 # 0 = fifo, 1 = FR-FCFS (defaul)
-gpgpu_dram_partition_queues              8:8:8:8 # i2$:$2d:d2$:$2i
-l2_ideal                               0 # Use a ideal L2 cache that always hit
-gpgpu_cache:dl2     64:128:8,L:B:m:W:L,A:32:4,4:0,32 # unified banked L2 data cache config  {<nsets>:<bsize>:<assoc>,<rep>:<wr>:<alloc>:<wr_alloc>,<mshr>:<N>:<merge>,<mq>}
-gpgpu_cache:dl2_texture_only                    0 # L2 cache used for texture only
-gpgpu_n_mem                            6 # number of memory modules (e.g. memory controllers) in gpu
-gpgpu_n_sub_partition_per_mchannel                    2 # number of memory subpartition in each memory module
-gpgpu_n_mem_per_ctrlr                    2 # number of memory chips per memory controller
-gpgpu_memlatency_stat                   14 # track and display latency statistics 0x2 enables MC, 0x4 enables queue logs
-gpgpu_frfcfs_dram_sched_queue_size                   16 # 0 = unlimited (default); # entries per chip
-gpgpu_dram_return_queue_size                  116 # 0 = unlimited (default); # entries per chip
-gpgpu_dram_buswidth                    4 # default = 4 bytes (8 bytes per cycle at DDR)
-gpgpu_dram_burst_length                    4 # Burst length of each DRAM request (default = 4 data bus cycle)
-dram_data_command_freq_ratio                    2 # Frequency ratio between DRAM data bus and command bus (default = 2 times, i.e. DDR)
-gpgpu_dram_timing_opt nbk=16:CCD=2:RRD=6:RCD=12:RAS=28:RP=12:RC=40: CL=12:WL=4:CDLR=5:WR=12:nbkgrp=4:CCDL=3:RTPL=2 # DRAM timing parameters = {nbk:tCCD:tRRD:tRCD:tRAS:tRP:tRC:CL:WL:tCDLR:tWR:nbkgrp:tCCDL:tRTPL}
-rop_latency                          120 # ROP queue latency (default 85)
-dram_latency                         100 # DRAM latency (default 30)
-gpgpu_mem_addr_mapping dramid@8;00000000.00000000.00000000.00000000.0000RRRR.RRRRRRRR.BBBCCCCB.CCSSSSSS # mapping memory address to dram model {dramid@<start bit>;<memory address map>}
-gpgpu_mem_addr_test                    0 # run sweep test to check address mapping for aliased address
-gpgpu_mem_address_mask                    1 # 0 = old addressing mask, 1 = new addressing mask, 2 = new add. mask + flipped bank sel and chip sel bits
-gpuwattch_xml_file  gpuwattch_gtx480.xml # GPUWattch XML file
-power_simulation_enabled                    0 # Turn on power simulator (1=On, 0=Off)
-power_per_cycle_dump                    0 # Dump detailed power output each cycle
-power_trace_enabled                    0 # produce a file for the power trace (1=On, 0=Off)
-power_trace_zlevel                     6 # Compression level of the power trace output log (0=no comp, 9=highest)
-steady_power_levels_enabled                    0 # produce a file for the steady power levels (1=On, 0=Off)
-steady_state_definition                  8:4 # allowed deviation:number of samples
-gpgpu_max_cycle                        0 # terminates gpu simulation early (0 = no limit)
-gpgpu_max_insn                         0 # terminates gpu simulation early (0 = no limit)
-gpgpu_max_cta                          0 # terminates gpu simulation early (0 = no limit)
-gpgpu_runtime_stat                   500 # display runtime statistics such as dram utilization {<freq>:<flag>}
-liveness_message_freq                    1 # Minimum number of seconds between simulation liveness messages (0 = always print)
-gpgpu_flush_l1_cache                    0 # Flush L1 cache at the end of each kernel call
-gpgpu_flush_l2_cache                    0 # Flush L2 cache at the end of each kernel call
-gpgpu_deadlock_detect                    1 # Stop the simulation at deadlock (1=on (default), 0=off)
-gpgpu_ptx_instruction_classification                    0 # if enabled will classify ptx instruction types per kernel (Max 255 kernels now)
-gpgpu_ptx_sim_mode                     0 # Select between Performance (default) or Functional simulation (1)
-gpgpu_clock_domains 700.0:700.0:700.0:924.0 # Clock Domain Frequencies in MhZ {<Core Clock>:<ICNT Clock>:<L2 Clock>:<DRAM Clock>}
-gpgpu_max_concurrent_kernel                    8 # maximum kernels that can run concurrently on GPU
-gpgpu_cflog_interval                    0 # Interval between each snapshot in control flow logger
-visualizer_enabled                     0 # Turn on visualizer output (1=On, 0=Off)
-visualizer_outputfile                 NULL # Specifies the output log file for visualizer
-visualizer_zlevel                      6 # Compression level of the visualizer output log (0=no comp, 9=highest)
-trace_enabled                          0 # Turn on traces
-trace_components                    none # comma seperated list of traces to enable. Complete list found in trace_streams.tup. Default none
-trace_sampling_core                    0 # The core which is printed using CORE_DPRINTF. Default 0
-trace_sampling_memory_partition                   -1 # The memory partition which is printed using MEMPART_DPRINTF. Default -1 (i.e. all)
-enable_ptx_file_line_stats                    1 # Turn on PTX source line statistic profiling. (1 = On)
-ptx_line_stats_filename gpgpu_inst_stats.txt # Output file for PTX source line statistics.
-save_embedded_ptx                      0 # saves ptx files embedded in binary as <n>.ptx
-keep                                   0 # keep intermediate files created by GPGPU-Sim when interfacing with external programs
-gpgpu_ptx_save_converted_ptxplus                    0 # Saved converted ptxplus to a file
-ptx_opcode_latency_int         4,13,4,5,145 # Opcode latencies for integers <ADD,MAX,MUL,MAD,DIV>Default 1,1,19,25,145
-ptx_opcode_latency_fp          4,13,4,5,39 # Opcode latencies for single precision floating points <ADD,MAX,MUL,MAD,DIV>Default 1,1,1,1,30
-ptx_opcode_latency_dp         8,19,8,8,330 # Opcode latencies for double precision floating points <ADD,MAX,MUL,MAD,DIV>Default 8,8,8,8,335
-ptx_opcode_initiation_int            1,2,2,1,8 # Opcode initiation intervals for integers <ADD,MAX,MUL,MAD,DIV>Default 1,1,4,4,32
-ptx_opcode_initiation_fp            1,2,1,1,4 # Opcode initiation intervals for single precision floating points <ADD,MAX,MUL,MAD,DIV>Default 1,1,1,1,5
-ptx_opcode_initiation_dp         8,16,8,8,130 # Opcode initiation intervals for double precision floating points <ADD,MAX,MUL,MAD,DIV>Default 8,8,8,8,130
DRAM Timing Options:
nbk                                    16 # number of banks
CCD                                     2 # column to column delay
RRD                                     6 # minimal delay between activation of rows in different banks
RCD                                    12 # row to column delay
RAS                                    28 # time needed to activate row
RP                                     12 # time needed to precharge (deactivate) row
RC                                     40 # row cycle time
CDLR                                    5 # switching from write to read (changes tWTR)
WR                                     12 # last data-in to row precharge
CL                                     12 # CAS latency
WL                                      4 # Write latency
nbkgrp                                  4 # number of bank groups
CCDL                                    3 # column to column delay between accesses to different bank groups
RTPL                                    2 # read to precharge delay between accesses to different bank groups
Total number of memory sub partition = 12
addr_dec_mask[CHIP]  = 0000000000000000 	high:64 low:0
addr_dec_mask[BK]    = 000000000000e100 	high:16 low:8
addr_dec_mask[ROW]   = 000000000fff0000 	high:28 low:16
addr_dec_mask[COL]   = 0000000000001eff 	high:13 low:0
addr_dec_mask[BURST] = 000000000000003f 	high:6 low:0
sub_partition_id_mask = 0000000000000100
GPGPU-Sim uArch: clock freqs: 700000000.000000:700000000.000000:700000000.000000:924000000.000000
GPGPU-Sim uArch: clock periods: 0.00000000142857142857:0.00000000142857142857:0.00000000142857142857:0.00000000108225108225
*** Initializing Memory Statistics ***
GPGPU-Sim uArch: interconnect node map (shaderID+MemID to icntID)
GPGPU-Sim uArch: Memory nodes ID start from index: 15
GPGPU-Sim uArch:    0   1   2   3   4
GPGPU-Sim uArch:    5   6   7   8   9
GPGPU-Sim uArch:   10  11  12  13  14
GPGPU-Sim uArch:   15  16  17  18  19
GPGPU-Sim uArch:   20  21  22  23  24
GPGPU-Sim uArch:   25  26
GPGPU-Sim uArch: interconnect node reverse map (icntID to shaderID+MemID)
GPGPU-Sim uArch: Memory nodes start from ID: 15
GPGPU-Sim uArch:    0   1   2   3   4
GPGPU-Sim uArch:    5   6   7   8   9
GPGPU-Sim uArch:   10  11  12  13  14
GPGPU-Sim uArch:   15  16  17  18  19
GPGPU-Sim uArch:   20  21  22  23  24
GPGPU-Sim uArch:   25  26
c498d9f32ab5dd92351405d48e0f6df7  /sciclone/data20/adwait/applications/benchmarks/CUDA/BFS/gpgpu_ptx_sim__BFS
GPGPU-Sim uArch: performance model initialization complete.
GPGPU-Sim PTX: __cudaRegisterFatBinary, fat_cubin_handle = 1, filename=bfs.cu
self exe links to: /sciclone/data20/adwait/applications/benchmarks/CUDA/BFS/gpgpu_ptx_sim__BFS
Running md5sum using "md5sum /sciclone/data20/adwait/applications/benchmarks/CUDA/BFS/gpgpu_ptx_sim__BFS "
Parsing file _cuobjdump_complete_output_26VhTP
######### cuobjdump parser ########
## Adding new section ELF
Adding arch: sm_20
Adding identifier: bfs.cu
## Adding new section PTX
Adding ptx filename: _cuobjdump_1.ptx
Adding arch: sm_20
Adding identifier: bfs.cu
Done parsing!!!
GPGPU-Sim PTX: __cudaRegisterFunction _Z6KernelP4NodePiPbS2_S1_S2_i : hostFun 0x0x405636, fat_cubin_handle = 1
GPGPU-Sim PTX: instruction assembly for function '_Z6KernelP4NodePiPbS2_S1_S2_i'...   done.
GPGPU-Sim PTX: finding reconvergence points for '_Z6KernelP4NodePiPbS2_S1_S2_i'...
GPGPU-Sim PTX: Finding dominators for '_Z6KernelP4NodePiPbS2_S1_S2_i'...
GPGPU-Sim PTX: Finding immediate dominators for '_Z6KernelP4NodePiPbS2_S1_S2_i'...
GPGPU-Sim PTX: Finding postdominators for '_Z6KernelP4NodePiPbS2_S1_S2_i'...
GPGPU-Sim PTX: Finding immediate postdominators for '_Z6KernelP4NodePiPbS2_S1_S2_i'...
GPGPU-Sim PTX: pre-decoding instructions for '_Z6KernelP4NodePiPbS2_S1_S2_i'...
GPGPU-Sim PTX: reconvergence points for _Z6KernelP4NodePiPbS2_S1_S2_i...
GPGPU-Sim PTX:  1 (potential) branch divergence @  PC=0x030 (_1.ptx:72) @%p1 bra $Lt_0_5122;
GPGPU-Sim PTX:    immediate post dominator      @  PC=0x1e8 (_1.ptx:141) exit;
GPGPU-Sim PTX:  2 (potential) branch divergence @  PC=0x068 (_1.ptx:79) @%p2 bra $Lt_0_5122;
GPGPU-Sim PTX:    immediate post dominator      @  PC=0x1e8 (_1.ptx:141) exit;
GPGPU-Sim PTX:  3 (potential) branch divergence @  PC=0x0e0 (_1.ptx:97) @%p3 bra $Lt_0_5122;
GPGPU-Sim PTX:    immediate post dominator      @  PC=0x1e8 (_1.ptx:141) exit;
GPGPU-Sim PTX:  4 (potential) branch divergence @  PC=0x138 (_1.ptx:111) @%p4 bra $Lt_0_4354;
GPGPU-Sim PTX:    immediate post dominator      @  PC=0x1c8 (_1.ptx:134) add.s32 %r11, %r11, 1;
GPGPU-Sim PTX:  5 (potential) branch divergence @  PC=0x1e0 (_1.ptx:137) @%p5 bra $Lt_0_4098;
GPGPU-Sim PTX:    immediate post dominator      @  PC=0x1e8 (_1.ptx:141) exit;
GPGPU-Sim PTX: ... end of reconvergence points for _Z6KernelP4NodePiPbS2_S1_S2_i
GPGPU-Sim PTX: ... done pre-decoding instructions for '_Z6KernelP4NodePiPbS2_S1_S2_i'.
GPGPU-Sim PTX: finished parsing EMBEDDED .ptx file _1.ptx
Adding _cuobjdump_1.ptx with cubin handle 1
GPGPU-Sim PTX: extracting embedded .ptx to temporary file "_ptx_48awBv"
Running: cat _ptx_48awBv | sed 's/.version 1.5/.version 1.4/' | sed 's/, texmode_independent//' | sed 's/\(\.extern \.const\[1\] .b8 \w\+\)\[\]/\1\[1\]/' | sed 's/const\[.\]/const\[0\]/g' > _ptx2_QspVic
GPGPU-Sim PTX: generating ptxinfo using "$CUDA_INSTALL_PATH/bin/ptxas --gpu-name=sm_20 -v _ptx2_QspVic --output-file  /dev/null 2> _ptx_48awBvinfo"
GPGPU-Sim PTX: Kernel '_Z6KernelP4NodePiPbS2_S1_S2_i' : regs=18, lmem=0, smem=0, cmem=84
GPGPU-Sim PTX: removing ptxinfo using "rm -f _ptx_48awBv _ptx2_QspVic _ptx_48awBvinfo"
GPGPU-Sim PTX: loading globals with explicit initializers... 
GPGPU-Sim PTX: finished loading globals (0 bytes total).
GPGPU-Sim PTX: loading constants with explicit initializers...  done.
Reading File
Input file: ./data/graph65536.txt
Read File
Copied Everything to GPU memory

GPGPU-Sim PTX: cudaLaunch for 0x0x405636 (mode=performance simulation) on stream 0
GPGPU-Sim PTX: pushing kernel '_Z6KernelP4NodePiPbS2_S1_S2_i' to stream 0, gridDim= (256,1,1) blockDim = (256,1,1) 
kernel '_Z6KernelP4NodePiPbS2_S1_S2_i' transfer to GPU hardware scheduler
GPGPU-Sim uArch: Shader 1 bind to kernel 1 '_Z6KernelP4NodePiPbS2_S1_S2_i'
GPGPU-Sim uArch: CTA/core = 6, limited by: threads regs
GPGPU-Sim uArch: core:  1, cta: 0 initialized @(1,0)
GPGPU-Sim uArch: Shader 2 bind to kernel 1 '_Z6KernelP4NodePiPbS2_S1_S2_i'
GPGPU-Sim uArch: core:  2, cta: 0 initialized @(1,0)
GPGPU-Sim uArch: Shader 3 bind to kernel 1 '_Z6KernelP4NodePiPbS2_S1_S2_i'
GPGPU-Sim uArch: core:  3, cta: 0 initialized @(1,0)
GPGPU-Sim uArch: Shader 4 bind to kernel 1 '_Z6KernelP4NodePiPbS2_S1_S2_i'
GPGPU-Sim uArch: core:  4, cta: 0 initialized @(1,0)
GPGPU-Sim uArch: Shader 5 bind to kernel 1 '_Z6KernelP4NodePiPbS2_S1_S2_i'
GPGPU-Sim uArch: core:  5, cta: 0 initialized @(1,0)
GPGPU-Sim uArch: Shader 6 bind to kernel 1 '_Z6KernelP4NodePiPbS2_S1_S2_i'
GPGPU-Sim uArch: core:  6, cta: 0 initialized @(1,0)
GPGPU-Sim uArch: Shader 7 bind to kernel 1 '_Z6KernelP4NodePiPbS2_S1_S2_i'
GPGPU-Sim uArch: core:  7, cta: 0 initialized @(1,0)
GPGPU-Sim uArch: Shader 8 bind to kernel 1 '_Z6KernelP4NodePiPbS2_S1_S2_i'
GPGPU-Sim uArch: core:  8, cta: 0 initialized @(1,0)
GPGPU-Sim uArch: Shader 9 bind to kernel 1 '_Z6KernelP4NodePiPbS2_S1_S2_i'
GPGPU-Sim uArch: core:  9, cta: 0 initialized @(1,0)
GPGPU-Sim uArch: Shader 10 bind to kernel 1 '_Z6KernelP4NodePiPbS2_S1_S2_i'
GPGPU-Sim uArch: core: 10, cta: 0 initialized @(1,0)
GPGPU-Sim uArch: Shader 11 bind to kernel 1 '_Z6KernelP4NodePiPbS2_S1_S2_i'
GPGPU-Sim uArch: core: 11, cta: 0 initialized @(1,0)
GPGPU-Sim uArch: Shader 12 bind to kernel 1 '_Z6KernelP4NodePiPbS2_S1_S2_i'
GPGPU-Sim uArch: core: 12, cta: 0 initialized @(1,0)
GPGPU-Sim uArch: Shader 13 bind to kernel 1 '_Z6KernelP4NodePiPbS2_S1_S2_i'
GPGPU-Sim uArch: core: 13, cta: 0 initialized @(1,0)
GPGPU-Sim uArch: Shader 14 bind to kernel 1 '_Z6KernelP4NodePiPbS2_S1_S2_i'
GPGPU-Sim uArch: core: 14, cta: 0 initialized @(1,0)
GPGPU-Sim uArch: Shader 0 bind to kernel 1 '_Z6KernelP4NodePiPbS2_S1_S2_i'
GPGPU-Sim uArch: core:  0, cta: 0 initialized @(1,0)
GPGPU-Sim uArch: core:  1, cta: 1 initialized @(2,0)
GPGPU-Sim uArch: core:  2, cta: 1 initialized @(2,0)
GPGPU-Sim uArch: core:  3, cta: 1 initialized @(2,0)
GPGPU-Sim uArch: core:  4, cta: 1 initialized @(2,0)
GPGPU-Sim uArch: core:  5, cta: 1 initialized @(2,0)
GPGPU-Sim uArch: core:  6, cta: 1 initialized @(2,0)
GPGPU-Sim uArch: core:  7, cta: 1 initialized @(2,0)
GPGPU-Sim uArch: core:  8, cta: 1 initialized @(2,0)
GPGPU-Sim uArch: core:  9, cta: 1 initialized @(2,0)
GPGPU-Sim uArch: core: 10, cta: 1 initialized @(2,0)
GPGPU-Sim uArch: core: 11, cta: 1 initialized @(2,0)
GPGPU-Sim uArch: core: 12, cta: 1 initialized @(2,0)
GPGPU-Sim uArch: core: 13, cta: 1 initialized @(2,0)
GPGPU-Sim uArch: core: 14, cta: 1 initialized @(2,0)
GPGPU-Sim uArch: core:  0, cta: 1 initialized @(2,0)
GPGPU-Sim uArch: core:  1, cta: 2 initialized @(3,0)
GPGPU-Sim uArch: core:  2, cta: 2 initialized @(3,0)
GPGPU-Sim uArch: core:  3, cta: 2 initialized @(3,0)
GPGPU-Sim uArch: core:  4, cta: 2 initialized @(3,0)
GPGPU-Sim uArch: core:  5, cta: 2 initialized @(3,0)
GPGPU-Sim uArch: core:  6, cta: 2 initialized @(3,0)
GPGPU-Sim uArch: core:  7, cta: 2 initialized @(3,0)
GPGPU-Sim uArch: core:  8, cta: 2 initialized @(3,0)
GPGPU-Sim uArch: core:  9, cta: 2 initialized @(3,0)
GPGPU-Sim uArch: core: 10, cta: 2 initialized @(3,0)
GPGPU-Sim uArch: core: 11, cta: 2 initialized @(3,0)
GPGPU-Sim uArch: core: 12, cta: 2 initialized @(3,0)
GPGPU-Sim uArch: core: 13, cta: 2 initialized @(3,0)
GPGPU-Sim uArch: core: 14, cta: 2 initialized @(3,0)
GPGPU-Sim uArch: core:  0, cta: 2 initialized @(3,0)
GPGPU-Sim uArch: core:  1, cta: 3 initialized @(4,0)
GPGPU-Sim uArch: core:  2, cta: 3 initialized @(4,0)
GPGPU-Sim uArch: core:  3, cta: 3 initialized @(4,0)
GPGPU-Sim uArch: core:  4, cta: 3 initialized @(4,0)
GPGPU-Sim uArch: core:  5, cta: 3 initialized @(4,0)
GPGPU-Sim uArch: core:  6, cta: 3 initialized @(4,0)
GPGPU-Sim uArch: core:  7, cta: 3 initialized @(4,0)
GPGPU-Sim uArch: core:  8, cta: 3 initialized @(4,0)
GPGPU-Sim uArch: core:  9, cta: 3 initialized @(4,0)
GPGPU-Sim uArch: core: 10, cta: 3 initialized @(4,0)
GPGPU-Sim uArch: core: 11, cta: 3 initialized @(4,0)
GPGPU-Sim uArch: core: 12, cta: 3 initialized @(4,0)
GPGPU-Sim uArch: core: 13, cta: 3 initialized @(4,0)
GPGPU-Sim uArch: core: 14, cta: 3 initialized @(4,0)
GPGPU-Sim uArch: core:  0, cta: 3 initialized @(4,0)
GPGPU-Sim uArch: core:  1, cta: 4 initialized @(5,0)
GPGPU-Sim uArch: core:  2, cta: 4 initialized @(5,0)
GPGPU-Sim uArch: core:  3, cta: 4 initialized @(5,0)
GPGPU-Sim uArch: core:  4, cta: 4 initialized @(5,0)
GPGPU-Sim uArch: core:  5, cta: 4 initialized @(5,0)
GPGPU-Sim uArch: core:  6, cta: 4 initialized @(5,0)
GPGPU-Sim uArch: core:  7, cta: 4 initialized @(5,0)
GPGPU-Sim uArch: core:  8, cta: 4 initialized @(5,0)
GPGPU-Sim uArch: core:  9, cta: 4 initialized @(5,0)
GPGPU-Sim uArch: core: 10, cta: 4 initialized @(5,0)
GPGPU-Sim uArch: core: 11, cta: 4 initialized @(5,0)
GPGPU-Sim uArch: core: 12, cta: 4 initialized @(5,0)
GPGPU-Sim uArch: core: 13, cta: 4 initialized @(5,0)
GPGPU-Sim uArch: core: 14, cta: 4 initialized @(5,0)
GPGPU-Sim uArch: core:  0, cta: 4 initialized @(5,0)
GPGPU-Sim uArch: core:  1, cta: 5 initialized @(6,0)
GPGPU-Sim uArch: core:  2, cta: 5 initialized @(6,0)
GPGPU-Sim uArch: core:  3, cta: 5 initialized @(6,0)
GPGPU-Sim uArch: core:  4, cta: 5 initialized @(6,0)
GPGPU-Sim uArch: core:  5, cta: 5 initialized @(6,0)
GPGPU-Sim uArch: core:  6, cta: 5 initialized @(6,0)
GPGPU-Sim uArch: core:  7, cta: 5 initialized @(6,0)
GPGPU-Sim uArch: core:  8, cta: 5 initialized @(6,0)
GPGPU-Sim uArch: core:  9, cta: 5 initialized @(6,0)
GPGPU-Sim uArch: core: 10, cta: 5 initialized @(6,0)
GPGPU-Sim uArch: core: 11, cta: 5 initialized @(6,0)
GPGPU-Sim uArch: core: 12, cta: 5 initialized @(6,0)
GPGPU-Sim uArch: core: 13, cta: 5 initialized @(6,0)
GPGPU-Sim uArch: core: 14, cta: 5 initialized @(6,0)
GPGPU-Sim uArch: core:  0, cta: 5 initialized @(6,0)
GPGPU-Sim PTX: 100000 instructions simulated : ctaid=(68,0,0) tid=(63,0,0)
GPGPU-Sim uArch: cycles simulated: 500  inst.: 92032 (ipc=184.1) sim_rate=46016 (inst/sec) elapsed = 0:0:00:02 / Wed Mar  2 01:13:10 2016
GPGPU-Sim PTX: 200000 instructions simulated : ctaid=(58,0,0) tid=(127,0,0)
GPGPU-Sim PTX: 300000 instructions simulated : ctaid=(19,0,0) tid=(221,0,0)
GPGPU-Sim uArch: Shader 2 finished CTA #3 (1261,0), 5 CTAs running
GPGPU-Sim uArch: Shader 2 finished CTA #4 (1261,0), 4 CTAs running
GPGPU-Sim uArch: core:  2, cta: 3 initialized @(1262,0)
GPGPU-Sim uArch: core:  2, cta: 4 initialized @(1263,0)
GPGPU-Sim uArch: Shader 3 finished CTA #0 (1267,0), 5 CTAs running
GPGPU-Sim uArch: Shader 3 finished CTA #1 (1267,0), 4 CTAs running
GPGPU-Sim uArch: Shader 3 finished CTA #2 (1267,0), 3 CTAs running
GPGPU-Sim uArch: Shader 3 finished CTA #3 (1267,0), 2 CTAs running
GPGPU-Sim uArch: core:  3, cta: 0 initialized @(1268,0)
GPGPU-Sim uArch: core:  3, cta: 1 initialized @(1269,0)
GPGPU-Sim uArch: Shader 2 finished CTA #0 (1269,0), 5 CTAs running
GPGPU-Sim uArch: Shader 2 finished CTA #1 (1269,0), 4 CTAs running
GPGPU-Sim uArch: core:  2, cta: 0 initialized @(1270,0)
GPGPU-Sim uArch: core:  3, cta: 2 initialized @(1270,0)
GPGPU-Sim uArch: core:  2, cta: 1 initialized @(1271,0)
GPGPU-Sim uArch: core:  3, cta: 3 initialized @(1271,0)
GPGPU-Sim uArch: Shader 4 finished CTA #0 (1274,0), 5 CTAs running
GPGPU-Sim uArch: Shader 4 finished CTA #1 (1274,0), 4 CTAs running
GPGPU-Sim uArch: Shader 4 finished CTA #2 (1274,0), 3 CTAs running
GPGPU-Sim uArch: Shader 4 finished CTA #3 (1274,0), 2 CTAs running
GPGPU-Sim uArch: core:  4, cta: 0 initialized @(1275,0)
GPGPU-Sim uArch: core:  4, cta: 1 initialized @(1276,0)
GPGPU-Sim uArch: core:  4, cta: 2 initialized @(1277,0)
GPGPU-Sim uArch: core:  4, cta: 3 initialized @(1278,0)
GPGPU-Sim uArch: Shader 0 finished CTA #0 (1280,0), 5 CTAs running
GPGPU-Sim uArch: Shader 0 finished CTA #2 (1280,0), 4 CTAs running
GPGPU-Sim uArch: core:  0, cta: 0 initialized @(1281,0)
GPGPU-Sim uArch: core:  0, cta: 2 initialized @(1282,0)
GPGPU-Sim uArch: Shader 5 finished CTA #0 (1283,0), 5 CTAs running
GPGPU-Sim uArch: Shader 5 finished CTA #1 (1283,0), 4 CTAs running
GPGPU-Sim uArch: Shader 5 finished CTA #2 (1283,0), 3 CTAs running
GPGPU-Sim uArch: Shader 5 finished CTA #3 (1283,0), 2 CTAs running
GPGPU-Sim uArch: core:  5, cta: 0 initialized @(1284,0)
GPGPU-Sim uArch: core:  5, cta: 1 initialized @(1285,0)
GPGPU-Sim uArch: core:  5, cta: 2 initialized @(1286,0)
GPGPU-Sim uArch: Shader 2 finished CTA #5 (1286,0), 5 CTAs running
GPGPU-Sim uArch: core:  2, cta: 5 initialized @(1287,0)
GPGPU-Sim uArch: core:  5, cta: 3 initialized @(1287,0)
GPGPU-Sim uArch: Shader 1 finished CTA #1 (1292,0), 5 CTAs running
GPGPU-Sim uArch: core:  1, cta: 1 initialized @(1293,0)
GPGPU-Sim uArch: Shader 6 finished CTA #5 (1298,0), 5 CTAs running
GPGPU-Sim uArch: Shader 6 finished CTA #0 (1298,0), 4 CTAs running
GPGPU-Sim uArch: Shader 6 finished CTA #1 (1298,0), 3 CTAs running
GPGPU-Sim uArch: Shader 6 finished CTA #2 (1298,0), 2 CTAs running
GPGPU-Sim uArch: core:  6, cta: 0 initialized @(1299,0)
GPGPU-Sim uArch: Shader 1 finished CTA #3 (1299,0), 5 CTAs running
GPGPU-Sim uArch: Shader 1 finished CTA #4 (1299,0), 4 CTAs running
GPGPU-Sim uArch: core:  1, cta: 3 initialized @(1300,0)
GPGPU-Sim uArch: core:  6, cta: 1 initialized @(1300,0)
GPGPU-Sim uArch: core:  1, cta: 4 initialized @(1301,0)
GPGPU-Sim uArch: core:  6, cta: 2 initialized @(1301,0)
GPGPU-Sim uArch: core:  6, cta: 5 initialized @(1302,0)
GPGPU-Sim uArch: Shader 0 finished CTA #1 (1302,0), 5 CTAs running
GPGPU-Sim uArch: Shader 2 finished CTA #2 (1302,0), 5 CTAs running
GPGPU-Sim uArch: core:  0, cta: 1 initialized @(1303,0)
GPGPU-Sim uArch: core:  2, cta: 2 initialized @(1303,0)
GPGPU-Sim uArch: Shader 8 finished CTA #0 (1304,0), 5 CTAs running
GPGPU-Sim uArch: Shader 8 finished CTA #1 (1304,0), 4 CTAs running
GPGPU-Sim uArch: Shader 8 finished CTA #2 (1304,0), 3 CTAs running
GPGPU-Sim uArch: core:  8, cta: 0 initialized @(1305,0)
GPGPU-Sim uArch: core:  8, cta: 1 initialized @(1306,0)
GPGPU-Sim uArch: Shader 6 finished CTA #4 (1306,0), 5 CTAs running
GPGPU-Sim uArch: core:  6, cta: 4 initialized @(1307,0)
GPGPU-Sim uArch: core:  8, cta: 2 initialized @(1307,0)
GPGPU-Sim uArch: Shader 7 finished CTA #0 (1307,0), 5 CTAs running
GPGPU-Sim uArch: Shader 7 finished CTA #1 (1307,0), 4 CTAs running
GPGPU-Sim uArch: Shader 7 finished CTA #2 (1307,0), 3 CTAs running
GPGPU-Sim uArch: core:  7, cta: 0 initialized @(1308,0)
GPGPU-Sim uArch: Shader 3 finished CTA #4 (1308,0), 5 CTAs running
GPGPU-Sim uArch: Shader 3 finished CTA #5 (1308,0), 4 CTAs running
GPGPU-Sim uArch: core:  3, cta: 4 initialized @(1309,0)
GPGPU-Sim uArch: core:  7, cta: 1 initialized @(1309,0)
GPGPU-Sim uArch: Shader 1 finished CTA #2 (1309,0), 5 CTAs running
GPGPU-Sim uArch: core:  1, cta: 2 initialized @(1310,0)
GPGPU-Sim uArch: core:  3, cta: 5 initialized @(1310,0)
GPGPU-Sim uArch: core:  7, cta: 2 initialized @(1310,0)
GPGPU-Sim uArch: Shader 0 finished CTA #3 (1310,0), 5 CTAs running
GPGPU-Sim uArch: Shader 0 finished CTA #4 (1310,0), 4 CTAs running
GPGPU-Sim uArch: Shader 0 finished CTA #5 (1310,0), 3 CTAs running
GPGPU-Sim uArch: core:  0, cta: 3 initialized @(1311,0)
GPGPU-Sim uArch: core:  0, cta: 4 initialized @(1312,0)
GPGPU-Sim uArch: core:  0, cta: 5 initialized @(1313,0)
GPGPU-Sim uArch: Shader 4 finished CTA #4 (1318,0), 5 CTAs running
GPGPU-Sim uArch: Shader 4 finished CTA #5 (1318,0), 4 CTAs running
GPGPU-Sim uArch: Shader 8 finished CTA #5 (1318,0), 5 CTAs running
GPGPU-Sim uArch: core:  4, cta: 4 initialized @(1319,0)
GPGPU-Sim uArch: core:  8, cta: 5 initialized @(1319,0)
GPGPU-Sim uArch: Shader 9 finished CTA #4 (1319,0), 5 CTAs running
GPGPU-Sim uArch: Shader 9 finished CTA #5 (1319,0), 4 CTAs running
GPGPU-Sim uArch: Shader 9 finished CTA #0 (1319,0), 3 CTAs running
GPGPU-Sim uArch: Shader 9 finished CTA #1 (1319,0), 2 CTAs running
GPGPU-Sim uArch: core:  9, cta: 0 initialized @(1320,0)
GPGPU-Sim uArch: core:  4, cta: 5 initialized @(1320,0)
GPGPU-Sim uArch: Shader 5 finished CTA #4 (1320,0), 5 CTAs running
GPGPU-Sim uArch: Shader 5 finished CTA #5 (1320,0), 4 CTAs running
GPGPU-Sim uArch: Shader 10 finished CTA #4 (1320,0), 5 CTAs running
GPGPU-Sim uArch: Shader 10 finished CTA #0 (1320,0), 4 CTAs running
GPGPU-Sim uArch: Shader 10 finished CTA #1 (1320,0), 3 CTAs running
GPGPU-Sim uArch: core:  5, cta: 4 initialized @(1321,0)
GPGPU-Sim uArch: core:  9, cta: 1 initialized @(1321,0)
GPGPU-Sim uArch: core: 10, cta: 0 initialized @(1321,0)
GPGPU-Sim uArch: core:  5, cta: 5 initialized @(1322,0)
GPGPU-Sim uArch: core:  9, cta: 4 initialized @(1322,0)
GPGPU-Sim uArch: core: 10, cta: 1 initialized @(1322,0)
GPGPU-Sim uArch: core:  9, cta: 5 initialized @(1323,0)
GPGPU-Sim uArch: core: 10, cta: 4 initialized @(1323,0)
GPGPU-Sim uArch: Shader 12 finished CTA #0 (1324,0), 5 CTAs running
GPGPU-Sim uArch: core: 12, cta: 0 initialized @(1325,0)
GPGPU-Sim uArch: Shader 1 finished CTA #5 (1325,0), 5 CTAs running
GPGPU-Sim uArch: core:  1, cta: 5 initialized @(1326,0)
GPGPU-Sim uArch: Shader 12 finished CTA #3 (1332,0), 5 CTAs running
GPGPU-Sim uArch: Shader 12 finished CTA #4 (1332,0), 4 CTAs running
GPGPU-Sim uArch: Shader 14 finished CTA #3 (1332,0), 5 CTAs running
GPGPU-Sim uArch: Shader 14 finished CTA #4 (1332,0), 4 CTAs running
GPGPU-Sim uArch: core: 12, cta: 3 initialized @(1333,0)
GPGPU-Sim uArch: core: 14, cta: 3 initialized @(1333,0)
GPGPU-Sim uArch: core: 12, cta: 4 initialized @(1334,0)
GPGPU-Sim uArch: core: 14, cta: 4 initialized @(1334,0)
GPGPU-Sim uArch: Shader 7 finished CTA #3 (1336,0), 5 CTAs running
GPGPU-Sim uArch: Shader 7 finished CTA #4 (1336,0), 4 CTAs running
GPGPU-Sim uArch: Shader 7 finished CTA #5 (1336,0), 3 CTAs running
GPGPU-Sim uArch: core:  7, cta: 3 initialized @(1337,0)
GPGPU-Sim uArch: core:  7, cta: 4 initialized @(1338,0)
GPGPU-Sim uArch: Shader 6 finished CTA #3 (1338,0), 5 CTAs running
GPGPU-Sim uArch: Shader 10 finished CTA #5 (1338,0), 5 CTAs running
GPGPU-Sim uArch: core: 10, cta: 5 initialized @(1339,0)
GPGPU-Sim uArch: core:  6, cta: 3 initialized @(1339,0)
GPGPU-Sim uArch: core:  7, cta: 5 initialized @(1339,0)
GPGPU-Sim uArch: Shader 13 finished CTA #3 (1339,0), 5 CTAs running
GPGPU-Sim uArch: core: 13, cta: 3 initialized @(1340,0)
GPGPU-Sim uArch: Shader 14 finished CTA #0 (1340,0), 5 CTAs running
GPGPU-Sim uArch: Shader 14 finished CTA #1 (1340,0), 4 CTAs running
GPGPU-Sim uArch: core: 14, cta: 0 initialized @(1341,0)
GPGPU-Sim uArch: core: 14, cta: 1 initialized @(1342,0)
GPGPU-Sim uArch: Shader 8 finished CTA #3 (1342,0), 5 CTAs running
GPGPU-Sim uArch: Shader 8 finished CTA #4 (1342,0), 4 CTAs running
GPGPU-Sim uArch: core:  8, cta: 3 initialized @(1343,0)
GPGPU-Sim uArch: core:  8, cta: 4 initialized @(1344,0)
GPGPU-Sim uArch: Shader 12 finished CTA #1 (1344,0), 5 CTAs running
GPGPU-Sim uArch: Shader 12 finished CTA #2 (1344,0), 4 CTAs running
GPGPU-Sim uArch: core: 12, cta: 1 initialized @(1345,0)
GPGPU-Sim uArch: Shader 11 finished CTA #4 (1345,0), 5 CTAs running
GPGPU-Sim uArch: Shader 11 finished CTA #5 (1345,0), 4 CTAs running
GPGPU-Sim uArch: Shader 11 finished CTA #0 (1345,0), 3 CTAs running
GPGPU-Sim uArch: Shader 11 finished CTA #1 (1345,0), 2 CTAs running
GPGPU-Sim uArch: core: 11, cta: 0 initialized @(1346,0)
GPGPU-Sim uArch: core: 12, cta: 2 initialized @(1346,0)
GPGPU-Sim uArch: core: 11, cta: 1 initialized @(1347,0)
GPGPU-Sim uArch: Shader 13 finished CTA #0 (1347,0), 5 CTAs running
GPGPU-Sim uArch: Shader 13 finished CTA #1 (1347,0), 4 CTAs running
GPGPU-Sim uArch: core: 13, cta: 0 initialized @(1348,0)
GPGPU-Sim uArch: core: 11, cta: 4 initialized @(1348,0)
GPGPU-Sim uArch: core: 13, cta: 1 initialized @(1349,0)
GPGPU-Sim uArch: core: 11, cta: 5 initialized @(1349,0)
GPGPU-Sim uArch: Shader 10 finished CTA #2 (1354,0), 5 CTAs running
GPGPU-Sim uArch: Shader 10 finished CTA #3 (1354,0), 4 CTAs running
GPGPU-Sim uArch: core: 10, cta: 2 initialized @(1355,0)
GPGPU-Sim uArch: core: 10, cta: 3 initialized @(1356,0)
GPGPU-Sim uArch: Shader 9 finished CTA #2 (1356,0), 5 CTAs running
GPGPU-Sim uArch: Shader 9 finished CTA #3 (1356,0), 4 CTAs running
GPGPU-Sim uArch: core:  9, cta: 2 initialized @(1357,0)
GPGPU-Sim uArch: core:  9, cta: 3 initialized @(1358,0)
GPGPU-Sim uArch: Shader 14 finished CTA #5 (1358,0), 5 CTAs running
GPGPU-Sim uArch: core: 14, cta: 5 initialized @(1359,0)
GPGPU-Sim uArch: Shader 12 finished CTA #5 (1360,0), 5 CTAs running
GPGPU-Sim uArch: core: 12, cta: 5 initialized @(1361,0)
GPGPU-Sim uArch: Shader 13 finished CTA #4 (1362,0), 5 CTAs running
GPGPU-Sim uArch: Shader 13 finished CTA #5 (1362,0), 4 CTAs running
GPGPU-Sim uArch: core: 13, cta: 4 initialized @(1363,0)
GPGPU-Sim uArch: core: 13, cta: 5 initialized @(1364,0)
GPGPU-Sim uArch: Shader 14 finished CTA #2 (1374,0), 5 CTAs running
GPGPU-Sim uArch: core: 14, cta: 2 initialized @(1375,0)
GPGPU-Sim uArch: Shader 13 finished CTA #2 (1378,0), 5 CTAs running
GPGPU-Sim uArch: core: 13, cta: 2 initialized @(1379,0)
GPGPU-Sim PTX: 400000 instructions simulated : ctaid=(99,0,0) tid=(182,0,0)
GPGPU-Sim uArch: Shader 11 finished CTA #2 (1380,0), 5 CTAs running
GPGPU-Sim uArch: Shader 11 finished CTA #3 (1380,0), 4 CTAs running
GPGPU-Sim uArch: core: 11, cta: 2 initialized @(1381,0)
GPGPU-Sim uArch: core: 11, cta: 3 initialized @(1382,0)
GPGPU-Sim PTX: 500000 instructions simulated : ctaid=(149,0,0) tid=(53,0,0)
GPGPU-Sim uArch: cycles simulated: 1500  inst.: 464936 (ipc=310.0) sim_rate=154978 (inst/sec) elapsed = 0:0:00:03 / Wed Mar  2 01:13:11 2016
GPGPU-Sim PTX: 600000 instructions simulated : ctaid=(168,0,0) tid=(21,0,0)
GPGPU-Sim uArch: Shader 1 finished CTA #1 (1779,0), 5 CTAs running
GPGPU-Sim uArch: core:  1, cta: 1 initialized @(1780,0)
GPGPU-Sim uArch: Shader 2 finished CTA #3 (1782,0), 5 CTAs running
GPGPU-Sim uArch: Shader 3 finished CTA #0 (1782,0), 5 CTAs running
GPGPU-Sim uArch: Shader 3 finished CTA #1 (1782,0), 4 CTAs running
GPGPU-Sim uArch: core:  2, cta: 3 initialized @(1783,0)
GPGPU-Sim uArch: core:  3, cta: 0 initialized @(1783,0)
GPGPU-Sim uArch: core:  3, cta: 1 initialized @(1784,0)
GPGPU-Sim uArch: Shader 5 finished CTA #1 (1804,0), 5 CTAs running
GPGPU-Sim uArch: core:  5, cta: 1 initialized @(1805,0)
GPGPU-Sim uArch: Shader 4 finished CTA #0 (1814,0), 5 CTAs running
GPGPU-Sim uArch: core:  4, cta: 0 initialized @(1815,0)
GPGPU-Sim uArch: Shader 1 finished CTA #4 (1819,0), 5 CTAs running
GPGPU-Sim uArch: Shader 5 finished CTA #0 (1819,0), 5 CTAs running
GPGPU-Sim uArch: core:  5, cta: 0 initialized @(1820,0)
GPGPU-Sim uArch: core:  1, cta: 4 initialized @(1820,0)
GPGPU-Sim uArch: Shader 4 finished CTA #1 (1826,0), 5 CTAs running
GPGPU-Sim uArch: core:  4, cta: 1 initialized @(1827,0)
GPGPU-Sim uArch: Shader 0 finished CTA #0 (1832,0), 5 CTAs running
GPGPU-Sim uArch: core:  0, cta: 0 initialized @(1833,0)
GPGPU-Sim uArch: Shader 8 finished CTA #0 (1834,0), 5 CTAs running
GPGPU-Sim uArch: core:  8, cta: 0 initialized @(1835,0)
GPGPU-Sim uArch: Shader 2 finished CTA #0 (1838,0), 5 CTAs running
GPGPU-Sim uArch: Shader 2 finished CTA #1 (1838,0), 4 CTAs running
GPGPU-Sim uArch: Shader 3 finished CTA #2 (1838,0), 5 CTAs running
GPGPU-Sim uArch: Shader 3 finished CTA #3 (1838,0), 4 CTAs running
GPGPU-Sim uArch: core:  2, cta: 0 initialized @(1839,0)
GPGPU-Sim uArch: core:  3, cta: 2 initialized @(1839,0)
GPGPU-Sim uArch: core:  2, cta: 1 initialized @(1840,0)
GPGPU-Sim uArch: core:  3, cta: 3 initialized @(1840,0)
GPGPU-Sim uArch: Shader 0 finished CTA #1 (1841,0), 5 CTAs running
GPGPU-Sim uArch: core:  0, cta: 1 initialized @(1842,0)
GPGPU-Sim uArch: Shader 2 finished CTA #4 (1846,0), 5 CTAs running
GPGPU-Sim uArch: core:  2, cta: 4 initialized @(1847,0)
GPGPU-Sim uArch: Shader 1 finished CTA #3 (1847,0), 5 CTAs running
GPGPU-Sim uArch: core:  1, cta: 3 initialized @(1848,0)
GPGPU-Sim uArch: Shader 5 finished CTA #2 (1849,0), 5 CTAs running
GPGPU-Sim uArch: Shader 5 finished CTA #3 (1849,0), 4 CTAs running
GPGPU-Sim uArch: core:  5, cta: 2 initialized @(1850,0)
GPGPU-Sim uArch: core:  5, cta: 3 initialized @(1851,0)
GPGPU-Sim uArch: Shader 6 finished CTA #0 (1856,0), 5 CTAs running
GPGPU-Sim uArch: core:  6, cta: 0 initialized @(1857,0)
GPGPU-Sim uArch: Shader 7 finished CTA #0 (1861,0), 5 CTAs running
GPGPU-Sim uArch: core:  7, cta: 0 initialized @(1862,0)
GPGPU-Sim uArch: Shader 9 finished CTA #5 (1863,0), 5 CTAs running
GPGPU-Sim uArch: core:  9, cta: 5 initialized @(1864,0)
GPGPU-Sim uArch: Shader 6 finished CTA #2 (1864,0), 5 CTAs running
GPGPU-Sim uArch: core:  6, cta: 2 initialized @(1865,0)
GPGPU-Sim uArch: Shader 11 finished CTA #4 (1874,0), 5 CTAs running
GPGPU-Sim uArch: core: 11, cta: 4 initialized @(1875,0)
GPGPU-Sim uArch: Shader 4 finished CTA #2 (1877,0), 5 CTAs running
GPGPU-Sim uArch: core:  4, cta: 2 initialized @(1878,0)
GPGPU-Sim uArch: Shader 8 finished CTA #1 (1880,0), 5 CTAs running
GPGPU-Sim uArch: Shader 8 finished CTA #2 (1880,0), 4 CTAs running
GPGPU-Sim uArch: core:  8, cta: 1 initialized @(1881,0)
GPGPU-Sim uArch: core:  8, cta: 2 initialized @(1882,0)
GPGPU-Sim uArch: Shader 0 finished CTA #2 (1890,0), 5 CTAs running
GPGPU-Sim uArch: core:  0, cta: 2 initialized @(1891,0)
GPGPU-Sim uArch: Shader 4 finished CTA #3 (1902,0), 5 CTAs running
GPGPU-Sim uArch: core:  4, cta: 3 initialized @(1903,0)
GPGPU-Sim uArch: Shader 12 finished CTA #0 (1903,0), 5 CTAs running
GPGPU-Sim uArch: core: 12, cta: 0 initialized @(1904,0)
GPGPU-Sim uArch: Shader 6 finished CTA #1 (1904,0), 5 CTAs running
GPGPU-Sim uArch: core:  6, cta: 1 initialized @(1905,0)
GPGPU-Sim uArch: Shader 7 finished CTA #1 (1905,0), 5 CTAs running
GPGPU-Sim uArch: Shader 7 finished CTA #2 (1905,0), 4 CTAs running
GPGPU-Sim uArch: core:  7, cta: 1 initialized @(1906,0)
GPGPU-Sim uArch: core:  7, cta: 2 initialized @(1907,0)
GPGPU-Sim uArch: Shader 8 finished CTA #5 (1907,0), 5 CTAs running
GPGPU-Sim uArch: Shader 10 finished CTA #4 (1907,0), 5 CTAs running
GPGPU-Sim uArch: core:  8, cta: 5 initialized @(1908,0)
GPGPU-Sim uArch: core: 10, cta: 4 initialized @(1908,0)
GPGPU-Sim uArch: Shader 13 finished CTA #1 (1909,0), 5 CTAs running
GPGPU-Sim uArch: core: 13, cta: 1 initialized @(1910,0)
GPGPU-Sim uArch: Shader 10 finished CTA #1 (1916,0), 5 CTAs running
GPGPU-Sim uArch: core: 10, cta: 1 initialized @(1917,0)
GPGPU-Sim uArch: Shader 9 finished CTA #0 (1918,0), 5 CTAs running
GPGPU-Sim uArch: core:  9, cta: 0 initialized @(1919,0)
GPGPU-Sim PTX: 700000 instructions simulated : ctaid=(197,0,0) tid=(13,0,0)
GPGPU-Sim uArch: Shader 11 finished CTA #5 (1933,0), 5 CTAs running
GPGPU-Sim uArch: core: 11, cta: 5 initialized @(1934,0)
GPGPU-Sim uArch: Shader 1 finished CTA #2 (1934,0), 5 CTAs running
GPGPU-Sim uArch: core:  1, cta: 2 initialized @(1935,0)
GPGPU-Sim uArch: Shader 14 finished CTA #0 (1938,0), 5 CTAs running
GPGPU-Sim uArch: Shader 14 finished CTA #1 (1938,0), 4 CTAs running
GPGPU-Sim uArch: core: 14, cta: 0 initialized @(1939,0)
GPGPU-Sim uArch: core: 14, cta: 1 initialized @(1940,0)
GPGPU-Sim uArch: Shader 12 finished CTA #3 (1941,0), 5 CTAs running
GPGPU-Sim uArch: core: 12, cta: 3 initialized @(1942,0)
GPGPU-Sim uArch: Shader 3 finished CTA #4 (1949,0), 5 CTAs running
GPGPU-Sim uArch: core:  3, cta: 4 initialized @(1950,0)
GPGPU-Sim uArch: Shader 13 finished CTA #3 (1952,0), 5 CTAs running
GPGPU-Sim uArch: core: 13, cta: 3 initialized @(1953,0)
GPGPU-Sim uArch: Shader 14 finished CTA #3 (1958,0), 5 CTAs running
GPGPU-Sim uArch: core: 14, cta: 3 initialized @(1959,0)
GPGPU-Sim uArch: Shader 6 finished CTA #4 (1963,0), 5 CTAs running
GPGPU-Sim uArch: Shader 6 finished CTA #5 (1963,0), 4 CTAs running
GPGPU-Sim uArch: core:  6, cta: 4 initialized @(1964,0)
GPGPU-Sim uArch: Shader 2 finished CTA #5 (1964,0), 5 CTAs running
GPGPU-Sim uArch: core:  2, cta: 5 initialized @(1965,0)
GPGPU-Sim uArch: core:  6, cta: 5 initialized @(1965,0)
GPGPU-Sim uArch: Shader 1 finished CTA #5 (1979,0), 5 CTAs running
GPGPU-Sim uArch: core:  1, cta: 5 initialized @(1980,0)
GPGPU-Sim uArch: Shader 2 finished CTA #2 (1980,0), 5 CTAs running
GPGPU-Sim uArch: core:  2, cta: 2 initialized @(1981,0)
GPGPU-Sim uArch: Shader 0 finished CTA #3 (1986,0), 5 CTAs running
GPGPU-Sim uArch: Shader 0 finished CTA #4 (1986,0), 4 CTAs running
GPGPU-Sim uArch: core:  0, cta: 3 initialized @(1987,0)
GPGPU-Sim uArch: core:  0, cta: 4 initialized @(1988,0)
GPGPU-Sim uArch: Shader 3 finished CTA #5 (1997,0), 5 CTAs running
GPGPU-Sim uArch: Shader 9 finished CTA #4 (1997,0), 5 CTAs running
GPGPU-Sim uArch: core:  3, cta: 5 initialized @(1998,0)
GPGPU-Sim uArch: core:  9, cta: 4 initialized @(1998,0)
GPGPU-Sim uArch: Shader 10 finished CTA #2 (2001,0), 5 CTAs running
GPGPU-Sim uArch: core: 10, cta: 2 initialized @(2002,0)
GPGPU-Sim uArch: Shader 11 finished CTA #2 (2009,0), 5 CTAs running
GPGPU-Sim uArch: core: 11, cta: 2 initialized @(2010,0)
GPGPU-Sim uArch: Shader 9 finished CTA #2 (2011,0), 5 CTAs running
GPGPU-Sim uArch: core:  9, cta: 2 initialized @(2012,0)
GPGPU-Sim uArch: Shader 4 finished CTA #4 (2014,0), 5 CTAs running
GPGPU-Sim uArch: core:  4, cta: 4 initialized @(2015,0)
GPGPU-Sim uArch: Shader 10 finished CTA #0 (2021,0), 5 CTAs running
GPGPU-Sim uArch: core: 10, cta: 0 initialized @(2022,0)
GPGPU-Sim uArch: Shader 12 finished CTA #4 (2025,0), 5 CTAs running
GPGPU-Sim uArch: core: 12, cta: 4 initialized @(2026,0)
GPGPU-Sim uArch: Shader 6 finished CTA #3 (2028,0), 5 CTAs running
GPGPU-Sim uArch: core:  6, cta: 3 initialized @(2029,0)
GPGPU-Sim uArch: Shader 7 finished CTA #5 (2030,0), 5 CTAs running
GPGPU-Sim uArch: core:  7, cta: 5 initialized @(2031,0)
GPGPU-Sim uArch: Shader 0 finished CTA #5 (2034,0), 5 CTAs running
GPGPU-Sim uArch: core:  0, cta: 5 initialized @(2035,0)
GPGPU-Sim uArch: Shader 9 finished CTA #1 (2035,0), 5 CTAs running
GPGPU-Sim uArch: Shader 11 finished CTA #1 (2035,0), 5 CTAs running
GPGPU-Sim uArch: core:  9, cta: 1 initialized @(2036,0)
GPGPU-Sim uArch: core: 11, cta: 1 initialized @(2036,0)
GPGPU-Sim uArch: Shader 10 finished CTA #3 (2037,0), 5 CTAs running
GPGPU-Sim uArch: core: 10, cta: 3 initialized @(2038,0)
GPGPU-Sim uArch: Shader 13 finished CTA #2 (2040,0), 5 CTAs running
GPGPU-Sim uArch: core: 13, cta: 2 initialized @(2041,0)
GPGPU-Sim PTX: 800000 instructions simulated : ctaid=(138,0,0) tid=(107,0,0)
GPGPU-Sim uArch: Shader 8 finished CTA #3 (2043,0), 5 CTAs running
GPGPU-Sim uArch: Shader 11 finished CTA #3 (2043,0), 5 CTAs running
GPGPU-Sim uArch: core:  8, cta: 3 initialized @(2044,0)
GPGPU-Sim uArch: core: 11, cta: 3 initialized @(2044,0)
GPGPU-Sim uArch: Shader 10 finished CTA #5 (2044,0), 5 CTAs running
GPGPU-Sim uArch: core: 10, cta: 5 initialized @(2045,0)
GPGPU-Sim uArch: Shader 7 finished CTA #3 (2048,0), 5 CTAs running
GPGPU-Sim uArch: Shader 7 finished CTA #4 (2048,0), 4 CTAs running
GPGPU-Sim uArch: core:  7, cta: 3 initialized @(2049,0)
GPGPU-Sim uArch: core:  7, cta: 4 initialized @(2050,0)
GPGPU-Sim uArch: Shader 4 finished CTA #5 (2052,0), 5 CTAs running
GPGPU-Sim uArch: core:  4, cta: 5 initialized @(2053,0)
GPGPU-Sim uArch: Shader 11 finished CTA #0 (2053,0), 5 CTAs running
GPGPU-Sim uArch: core: 11, cta: 0 initialized @(2054,0)
GPGPU-Sim uArch: Shader 5 finished CTA #4 (2058,0), 5 CTAs running
GPGPU-Sim uArch: Shader 12 finished CTA #1 (2058,0), 5 CTAs running
GPGPU-Sim uArch: Shader 12 finished CTA #2 (2058,0), 4 CTAs running
GPGPU-Sim uArch: core: 12, cta: 1 initialized @(2059,0)
GPGPU-Sim uArch: Shader 13 finished CTA #0 (2064,0), 5 CTAs running
GPGPU-Sim uArch: Shader 5 finished CTA #5 (2071,0), 4 CTAs running
GPGPU-Sim uArch: Shader 9 finished CTA #3 (2079,0), 5 CTAs running
GPGPU-Sim uArch: Shader 8 finished CTA #4 (2082,0), 5 CTAs running
GPGPU-Sim uArch: Shader 13 finished CTA #4 (2083,0), 4 CTAs running
GPGPU-Sim uArch: Shader 13 finished CTA #5 (2083,0), 3 CTAs running
GPGPU-Sim uArch: Shader 14 finished CTA #2 (2101,0), 5 CTAs running
GPGPU-Sim uArch: Shader 12 finished CTA #5 (2106,0), 4 CTAs running
GPGPU-Sim uArch: Shader 14 finished CTA #4 (2109,0), 4 CTAs running
GPGPU-Sim uArch: Shader 14 finished CTA #5 (2109,0), 3 CTAs running
GPGPU-Sim uArch: Shader 1 finished CTA #1 (2175,0), 5 CTAs running
GPGPU-Sim PTX: 900000 instructions simulated : ctaid=(237,0,0) tid=(11,0,0)
GPGPU-Sim uArch: Shader 9 finished CTA #5 (2241,0), 4 CTAs running
GPGPU-Sim uArch: Shader 2 finished CTA #3 (2246,0), 5 CTAs running
GPGPU-Sim uArch: Shader 4 finished CTA #0 (2248,0), 5 CTAs running
GPGPU-Sim uArch: Shader 5 finished CTA #1 (2253,0), 3 CTAs running
GPGPU-Sim uArch: Shader 3 finished CTA #0 (2261,0), 5 CTAs running
GPGPU-Sim uArch: Shader 0 finished CTA #0 (2266,0), 5 CTAs running
GPGPU-Sim uArch: Shader 5 finished CTA #0 (2270,0), 2 CTAs running
GPGPU-Sim uArch: Shader 8 finished CTA #0 (2278,0), 4 CTAs running
GPGPU-Sim uArch: Shader 7 finished CTA #0 (2287,0), 5 CTAs running
GPGPU-Sim uArch: Shader 4 finished CTA #1 (2294,0), 4 CTAs running
GPGPU-Sim uArch: Shader 1 finished CTA #4 (2296,0), 4 CTAs running
GPGPU-Sim uArch: Shader 11 finished CTA #4 (2303,0), 5 CTAs running
GPGPU-Sim uArch: Shader 12 finished CTA #0 (2304,0), 3 CTAs running
GPGPU-Sim uArch: Shader 3 finished CTA #1 (2311,0), 4 CTAs running
GPGPU-Sim uArch: Shader 13 finished CTA #1 (2313,0), 2 CTAs running
GPGPU-Sim uArch: Shader 1 finished CTA #3 (2318,0), 3 CTAs running
GPGPU-Sim uArch: Shader 5 finished CTA #2 (2322,0), 1 CTAs running
GPGPU-Sim uArch: Shader 0 finished CTA #1 (2335,0), 4 CTAs running
GPGPU-Sim uArch: Shader 6 finished CTA #0 (2344,0), 5 CTAs running
GPGPU-Sim uArch: Shader 3 finished CTA #2 (2355,0), 3 CTAs running
GPGPU-Sim uArch: Shader 2 finished CTA #0 (2363,0), 4 CTAs running
GPGPU-Sim uArch: Shader 2 finished CTA #1 (2363,0), 3 CTAs running
GPGPU-Sim uArch: Shader 6 finished CTA #2 (2372,0), 4 CTAs running
GPGPU-Sim uArch: Shader 2 finished CTA #4 (2376,0), 2 CTAs running
GPGPU-Sim uArch: Shader 10 finished CTA #4 (2384,0), 5 CTAs running
GPGPU-Sim uArch: Shader 4 finished CTA #2 (2386,0), 3 CTAs running
GPGPU-Sim uArch: Shader 8 finished CTA #1 (2388,0), 3 CTAs running
GPGPU-Sim uArch: Shader 1 finished CTA #2 (2396,0), 2 CTAs running
GPGPU-Sim uArch: Shader 5 finished CTA #3 (2397,0), 0 CTAs running
GPGPU-Sim uArch: Shader 5 empty (release kernel 1 '_Z6KernelP4NodePiPbS2_S1_S2_i').
GPGPU-Sim uArch: Shader 9 finished CTA #0 (2397,0), 3 CTAs running
GPGPU-Sim uArch: Shader 14 finished CTA #0 (2399,0), 2 CTAs running
GPGPU-Sim uArch: Shader 3 finished CTA #3 (2406,0), 2 CTAs running
GPGPU-Sim uArch: Shader 14 finished CTA #1 (2408,0), 1 CTAs running
GPGPU-Sim uArch: Shader 12 finished CTA #3 (2415,0), 2 CTAs running
GPGPU-Sim uArch: Shader 8 finished CTA #2 (2420,0), 2 CTAs running
GPGPU-Sim uArch: Shader 4 finished CTA #3 (2421,0), 2 CTAs running
GPGPU-Sim uArch: Shader 1 finished CTA #5 (2425,0), 1 CTAs running
GPGPU-Sim uArch: Shader 7 finished CTA #2 (2426,0), 4 CTAs running
GPGPU-Sim uArch: Shader 8 finished CTA #5 (2426,0), 1 CTAs running
GPGPU-Sim uArch: Shader 7 finished CTA #1 (2433,0), 3 CTAs running
GPGPU-Sim uArch: Shader 13 finished CTA #3 (2433,0), 1 CTAs running
GPGPU-Sim uArch: Shader 0 finished CTA #2 (2436,0), 3 CTAs running
GPGPU-Sim uArch: Shader 10 finished CTA #1 (2442,0), 4 CTAs running
GPGPU-Sim uArch: Shader 6 finished CTA #1 (2446,0), 3 CTAs running
GPGPU-Sim uArch: Shader 14 finished CTA #3 (2446,0), 0 CTAs running
GPGPU-Sim uArch: Shader 14 empty (release kernel 1 '_Z6KernelP4NodePiPbS2_S1_S2_i').
GPGPU-Sim uArch: Shader 2 finished CTA #5 (2448,0), 1 CTAs running
GPGPU-Sim uArch: Shader 11 finished CTA #5 (2453,0), 4 CTAs running
GPGPU-Sim uArch: Shader 3 finished CTA #4 (2457,0), 1 CTAs running
GPGPU-Sim uArch: Shader 12 finished CTA #4 (2466,0), 1 CTAs running
GPGPU-Sim uArch: Shader 3 finished CTA #5 (2470,0), 0 CTAs running
GPGPU-Sim uArch: Shader 3 empty (release kernel 1 '_Z6KernelP4NodePiPbS2_S1_S2_i').
GPGPU-Sim uArch: Shader 13 finished CTA #2 (2471,0), 0 CTAs running
GPGPU-Sim uArch: Shader 13 empty (release kernel 1 '_Z6KernelP4NodePiPbS2_S1_S2_i').
GPGPU-Sim uArch: Shader 8 finished CTA #3 (2474,0), 0 CTAs running
GPGPU-Sim uArch: Shader 8 empty (release kernel 1 '_Z6KernelP4NodePiPbS2_S1_S2_i').
GPGPU-Sim uArch: Shader 4 finished CTA #4 (2475,0), 1 CTAs running
GPGPU-Sim uArch: Shader 2 finished CTA #2 (2488,0), 0 CTAs running
GPGPU-Sim uArch: Shader 2 empty (release kernel 1 '_Z6KernelP4NodePiPbS2_S1_S2_i').
GPGPU-Sim uArch: Shader 9 finished CTA #4 (2491,0), 2 CTAs running
GPGPU-Sim uArch: Shader 9 finished CTA #2 (2493,0), 1 CTAs running
GPGPU-Sim uArch: Shader 6 finished CTA #4 (2494,0), 2 CTAs running
GPGPU-Sim uArch: Shader 4 finished CTA #5 (2498,0), 0 CTAs running
GPGPU-Sim uArch: Shader 4 empty (release kernel 1 '_Z6KernelP4NodePiPbS2_S1_S2_i').
GPGPU-Sim uArch: Shader 0 finished CTA #3 (2499,0), 2 CTAs running
GPGPU-Sim uArch: cycles simulated: 2500  inst.: 903157 (ipc=361.3) sim_rate=225789 (inst/sec) elapsed = 0:0:00:04 / Wed Mar  2 01:13:12 2016
GPGPU-Sim uArch: Shader 0 finished CTA #4 (2510,0), 1 CTAs running
GPGPU-Sim uArch: Shader 12 finished CTA #1 (2511,0), 0 CTAs running
GPGPU-Sim uArch: Shader 12 empty (release kernel 1 '_Z6KernelP4NodePiPbS2_S1_S2_i').
GPGPU-Sim uArch: Shader 6 finished CTA #5 (2516,0), 1 CTAs running
GPGPU-Sim uArch: Shader 11 finished CTA #2 (2516,0), 3 CTAs running
GPGPU-Sim uArch: Shader 6 finished CTA #3 (2527,0), 0 CTAs running
GPGPU-Sim uArch: Shader 6 empty (release kernel 1 '_Z6KernelP4NodePiPbS2_S1_S2_i').
GPGPU-Sim uArch: Shader 9 finished CTA #1 (2527,0), 0 CTAs running
GPGPU-Sim uArch: Shader 9 empty (release kernel 1 '_Z6KernelP4NodePiPbS2_S1_S2_i').
GPGPU-Sim uArch: Shader 0 finished CTA #5 (2530,0), 0 CTAs running
GPGPU-Sim uArch: Shader 0 empty (release kernel 1 '_Z6KernelP4NodePiPbS2_S1_S2_i').
GPGPU-Sim uArch: Shader 7 finished CTA #3 (2548,0), 2 CTAs running
GPGPU-Sim uArch: Shader 7 finished CTA #5 (2555,0), 1 CTAs running
GPGPU-Sim uArch: Shader 10 finished CTA #2 (2558,0), 3 CTAs running
GPGPU-Sim uArch: Shader 7 finished CTA #4 (2559,0), 0 CTAs running
GPGPU-Sim uArch: Shader 7 empty (release kernel 1 '_Z6KernelP4NodePiPbS2_S1_S2_i').
GPGPU-Sim uArch: Shader 11 finished CTA #3 (2564,0), 2 CTAs running
GPGPU-Sim uArch: Shader 10 finished CTA #0 (2574,0), 2 CTAs running
GPGPU-Sim uArch: Shader 10 finished CTA #3 (2574,0), 1 CTAs running
GPGPU-Sim uArch: Shader 11 finished CTA #1 (2579,0), 1 CTAs running
GPGPU-Sim uArch: Shader 11 finished CTA #0 (2586,0), 0 CTAs running
GPGPU-Sim uArch: Shader 11 empty (release kernel 1 '_Z6KernelP4NodePiPbS2_S1_S2_i').
GPGPU-Sim uArch: Shader 10 finished CTA #5 (2589,0), 0 CTAs running
GPGPU-Sim uArch: Shader 10 empty (release kernel 1 '_Z6KernelP4NodePiPbS2_S1_S2_i').
GPGPU-Sim uArch: Shader 1 finished CTA #0 (5989,0), 0 CTAs running
GPGPU-Sim uArch: Shader 1 empty (release kernel 1 '_Z6KernelP4NodePiPbS2_S1_S2_i').
GPGPU-Sim uArch: GPU detected kernel '_Z6KernelP4NodePiPbS2_S1_S2_i' finished on shader 1.
GPGPU-Sim: synchronize waiting for inactive GPU simulation
kernel_name = _Z6KernelP4NodePiPbS2_S1_S2_i 
kernel_launch_uid = 1 
gpu_sim_cycle = 5990
gpu_sim_insn = 917736
gpu_ipc =     153.2113
gpu_tot_sim_cycle = 5990
gpu_tot_sim_insn = 917736
gpu_tot_ipc =     153.2113
gpu_tot_issued_cta = 256
gpu_stall_dramfull = 289
gpu_stall_icnt2sh    = 148
gpu_total_sim_rate=229434

========= Core cache stats =========
L1I_cache:
	L1I_total_cache_accesses = 18559
	L1I_total_cache_misses = 962
	L1I_total_cache_miss_rate = 0.0518
	L1I_total_cache_pending_hits = 0
	L1I_total_cache_reservation_fails = 5607
L1D_cache:
	L1D_cache_core[0]: Access = 144, Miss = 36, Miss_rate = 0.250, Pending_hits = 108, Reservation_fails = 0
	L1D_cache_core[1]: Access = 196, Miss = 68, Miss_rate = 0.347, Pending_hits = 96, Reservation_fails = 0
	L1D_cache_core[2]: Access = 144, Miss = 36, Miss_rate = 0.250, Pending_hits = 108, Reservation_fails = 0
	L1D_cache_core[3]: Access = 144, Miss = 36, Miss_rate = 0.250, Pending_hits = 108, Reservation_fails = 0
	L1D_cache_core[4]: Access = 144, Miss = 36, Miss_rate = 0.250, Pending_hits = 108, Reservation_fails = 0
	L1D_cache_core[5]: Access = 128, Miss = 32, Miss_rate = 0.250, Pending_hits = 96, Reservation_fails = 0
	L1D_cache_core[6]: Access = 144, Miss = 36, Miss_rate = 0.250, Pending_hits = 108, Reservation_fails = 0
	L1D_cache_core[7]: Access = 144, Miss = 36, Miss_rate = 0.250, Pending_hits = 108, Reservation_fails = 0
	L1D_cache_core[8]: Access = 136, Miss = 34, Miss_rate = 0.250, Pending_hits = 102, Reservation_fails = 0
	L1D_cache_core[9]: Access = 136, Miss = 34, Miss_rate = 0.250, Pending_hits = 102, Reservation_fails = 0
	L1D_cache_core[10]: Access = 144, Miss = 36, Miss_rate = 0.250, Pending_hits = 108, Reservation_fails = 0
	L1D_cache_core[11]: Access = 144, Miss = 36, Miss_rate = 0.250, Pending_hits = 108, Reservation_fails = 0
	L1D_cache_core[12]: Access = 128, Miss = 32, Miss_rate = 0.250, Pending_hits = 96, Reservation_fails = 0
	L1D_cache_core[13]: Access = 120, Miss = 30, Miss_rate = 0.250, Pending_hits = 90, Reservation_fails = 0
	L1D_cache_core[14]: Access = 120, Miss = 30, Miss_rate = 0.250, Pending_hits = 90, Reservation_fails = 0
	L1D_total_cache_accesses = 2116
	L1D_total_cache_misses = 548
	L1D_total_cache_miss_rate = 0.2590
	L1D_total_cache_pending_hits = 1536
	L1D_total_cache_reservation_fails = 0
	L1D_cache_data_port_util = 0.001
	L1D_cache_fill_port_util = 0.013
L1C_cache:
	L1C_total_cache_accesses = 4115
	L1C_total_cache_misses = 480
	L1C_total_cache_miss_rate = 0.1166
	L1C_total_cache_pending_hits = 0
	L1C_total_cache_reservation_fails = 3172
L1T_cache:
	L1T_total_cache_accesses = 0
	L1T_total_cache_misses = 0
	L1T_total_cache_pending_hits = 0
	L1T_total_cache_reservation_fails = 0

Total_core_cache_stats:
	Total_core_cache_stats_breakdown[GLOBAL_ACC_R][HIT] = 31
	Total_core_cache_stats_breakdown[GLOBAL_ACC_R][HIT_RESERVED] = 1536
	Total_core_cache_stats_breakdown[GLOBAL_ACC_R][MISS] = 523
	Total_core_cache_stats_breakdown[CONST_ACC_R][HIT] = 3635
	Total_core_cache_stats_breakdown[CONST_ACC_R][MISS] = 480
	Total_core_cache_stats_breakdown[CONST_ACC_R][RESERVATION_FAIL] = 3172
	Total_core_cache_stats_breakdown[GLOBAL_ACC_W][HIT] = 1
	Total_core_cache_stats_breakdown[GLOBAL_ACC_W][MISS] = 25
	Total_core_cache_stats_breakdown[INST_ACC_R][HIT] = 17597
	Total_core_cache_stats_breakdown[INST_ACC_R][MISS] = 962
	Total_core_cache_stats_breakdown[INST_ACC_R][RESERVATION_FAIL] = 5607
Shader 0 warp_id issue ditsribution:
warp_id:
0, 1, 2, 3, 4, 5, 6, 7, 8, 9, 10, 11, 12, 13, 14, 15, 16, 17, 18, 19, 20, 21, 22, 23, 24, 25, 26, 27, 28, 29, 30, 31, 32, 33, 34, 35, 36, 37, 38, 39, 40, 41, 42, 43, 44, 45, 46, 47, 
distro:
45, 45, 45, 45, 45, 45, 45, 45, 45, 45, 45, 45, 45, 45, 45, 45, 45, 45, 45, 45, 45, 45, 45, 45, 45, 45, 45, 45, 45, 45, 45, 45, 45, 45, 45, 45, 45, 45, 45, 45, 45, 45, 45, 45, 45, 45, 45, 45, 
gpgpu_n_tot_thrd_icount = 990816
gpgpu_n_tot_w_icount = 30963
gpgpu_n_stall_shd_mem = 3172
gpgpu_n_mem_read_local = 0
gpgpu_n_mem_write_local = 0
gpgpu_n_mem_read_global = 523
gpgpu_n_mem_write_global = 26
gpgpu_n_mem_texture = 0
gpgpu_n_mem_const = 15
gpgpu_n_load_insn  = 65578
gpgpu_n_store_insn = 26
gpgpu_n_shmem_insn = 0
gpgpu_n_tex_insn = 0
gpgpu_n_const_mem_insn = 0
gpgpu_n_param_mem_insn = 131091
gpgpu_n_shmem_bkconflict = 0
gpgpu_n_cache_bkconflict = 0
gpgpu_n_intrawarp_mshr_merge = 0
gpgpu_n_cmem_portconflict = 3172
gpgpu_stall_shd_mem[c_mem][bk_conf] = 3172
gpgpu_stall_shd_mem[c_mem][mshr_rc] = 0
gpgpu_stall_shd_mem[c_mem][icnt_rc] = 0
gpgpu_stall_shd_mem[c_mem][data_port_stall] = 0
gpgpu_stall_shd_mem[t_mem][mshr_rc] = 0
gpgpu_stall_shd_mem[t_mem][icnt_rc] = 0
gpgpu_stall_shd_mem[t_mem][data_port_stall] = 0
gpgpu_stall_shd_mem[s_mem][bk_conf] = 0
gpgpu_stall_shd_mem[gl_mem][bk_conf] = 0
gpgpu_stall_shd_mem[gl_mem][coal_stall] = 0
gpgpu_stall_shd_mem[gl_mem][data_port_stall] = 0
gpgpu_stall_shd_mem[g_mem_ld][mshr_rc] = 0
gpgpu_stall_shd_mem[g_mem_ld][icnt_rc] = 0
gpgpu_stall_shd_mem[g_mem_ld][wb_icnt_rc] = 0
gpgpu_stall_shd_mem[g_mem_ld][wb_rsrv_fail] = 0
gpgpu_stall_shd_mem[g_mem_st][mshr_rc] = 0
gpgpu_stall_shd_mem[g_mem_st][icnt_rc] = 0
gpgpu_stall_shd_mem[g_mem_st][wb_icnt_rc] = 0
gpgpu_stall_shd_mem[g_mem_st][wb_rsrv_fail] = 0
gpgpu_stall_shd_mem[l_mem_ld][mshr_rc] = 0
gpgpu_stall_shd_mem[l_mem_ld][icnt_rc] = 0
gpgpu_stall_shd_mem[l_mem_ld][wb_icnt_rc] = 0
gpgpu_stall_shd_mem[l_mem_ld][wb_rsrv_fail] = 0
gpgpu_stall_shd_mem[l_mem_st][mshr_rc] = 0
gpgpu_stall_shd_mem[l_mem_st][icnt_rc] = 0
gpgpu_stall_shd_mem[l_mem_ld][wb_icnt_rc] = 0
gpgpu_stall_shd_mem[l_mem_ld][wb_rsrv_fail] = 0
gpu_reg_bank_conflict_stalls = 0
Warp Occupancy Distribution:
Stall:7105	W0_Idle:15943	W0_Scoreboard:28143	W1:243	W2:0	W3:0	W4:0	W5:0	W6:0	W7:0	W8:0	W9:0	W10:0	W11:0	W12:0	W13:0	W14:0	W15:0	W16:0	W17:0	W18:0	W19:0	W20:0	W21:0	W22:0	W23:0	W24:0	W25:0	W26:0	W27:0	W28:0	W29:0	W30:0	W31:0	W32:30720
traffic_breakdown_coretomem[CONST_ACC_R] = 120 {8:15,}
traffic_breakdown_coretomem[GLOBAL_ACC_R] = 4184 {8:523,}
traffic_breakdown_coretomem[GLOBAL_ACC_W] = 1040 {40:26,}
traffic_breakdown_coretomem[INST_ACC_R] = 256 {8:32,}
traffic_breakdown_memtocore[CONST_ACC_R] = 1080 {72:15,}
traffic_breakdown_memtocore[GLOBAL_ACC_R] = 71128 {136:523,}
traffic_breakdown_memtocore[GLOBAL_ACC_W] = 208 {8:26,}
traffic_breakdown_memtocore[INST_ACC_R] = 4352 {136:32,}
maxmrqlatency = 179 
maxdqlatency = 0 
maxmflatency = 454 
averagemflatency = 298 
max_icnt2mem_latency = 36 
max_icnt2sh_latency = 5989 
mrq_lat_table:167 	20 	69 	61 	63 	45 	105 	18 	0 	0 	0 	0 	0 	0 	0 	0 	0 	0 	0 	0 	0 	0 	0 	0 	0 	0 	0 	0 	0 	0 	0 	0 	
dq_lat_table:0 	0 	0 	0 	0 	0 	0 	0 	0 	0 	0 	0 	0 	0 	0 	0 	0 	0 	0 	0 	0 	0 	0 	0 	0 	0 	0 	0 	0 	0 	0 	0 	
mf_lat_table:0 	0 	0 	0 	0 	0 	0 	29 	535 	0 	0 	0 	0 	0 	0 	0 	0 	0 	0 	0 	0 	0 	0 	0 	0 	0 	0 	0 	0 	0 	0 	0 	
icnt2mem_lat_table:0 	0 	0 	585 	8 	3 	0 	0 	0 	0 	0 	0 	0 	0 	0 	0 	0 	0 	0 	0 	0 	0 	0 	0 	
icnt2sh_lat_table:0 	0 	0 	471 	67 	0 	0 	0 	0 	0 	2 	9 	15 	0 	0 	0 	0 	0 	0 	0 	0 	0 	0 	0 	
mf_lat_pw_table:0 	0 	0 	0 	0 	0 	0 	5 	5 	0 	0 	0 	0 	0 	0 	0 	0 	0 	0 	0 	0 	0 	0 	0 	0 	0 	0 	0 	0 	0 	0 	0 	
maximum concurrent accesses to same row:
dram[0]:         1         0         0         0         0         0         0         0         0         0         0         0         0         0         0         0 
dram[1]:         0         0         0         0         0         0         0         0         0         0         0         0         0         0         0         0 
dram[2]:         0         0         0         0         0         0         0         0         0         0         0         0         0         0         0         0 
dram[3]:         0         0         0         0         0         0         0         0         0         0         0         0         0         0         0         0 
dram[4]:         0         0         0         0         0         0         0         0         0         0        22        22         0         0         0         0 
dram[5]:         0         0         0         0         0         0         0         0         0         0         0         0         0         0         0         0 
maximum service time to same row:
dram[0]:      1595         0      5971         0         0         0         0         0         0         0       934       899      1763      1775         0         0 
dram[1]:      1182         0         0         0         0         0         0         0         0         0       938       906      1747      1797         0      4010 
dram[2]:         0         0         0      3125         0      1622         0         0         0      4349       941       910      1751      1543         0         0 
dram[3]:         0         0         0      5154         0      4752         0         0         0         0       947       919      1774      1766         0         0 
dram[4]:         0      3937         0         0         0      5557         0         0         0         0      1290      2621      1785      1785      3194         0 
dram[5]:         0         0         0         0         0         0         0         0         0         0       918       922      1754      1738      5631         0 
average row accesses per activate:
dram[0]:  1.000000      -nan  2.000000      -nan      -nan      -nan      -nan      -nan      -nan      -nan 20.000000 22.000000 22.000000 22.000000      -nan      -nan 
dram[1]:  2.000000      -nan      -nan      -nan      -nan      -nan      -nan      -nan      -nan      -nan 20.000000 22.000000 24.000000 22.000000      -nan  3.000000 
dram[2]:      -nan      -nan      -nan  2.000000      -nan  1.000000      -nan      -nan      -nan  2.000000 20.000000 22.000000 22.000000 22.000000      -nan      -nan 
dram[3]:      -nan      -nan      -nan  2.000000      -nan  2.000000      -nan      -nan      -nan      -nan 20.000000 22.000000 22.000000 20.000000      -nan      -nan 
dram[4]:      -nan  2.000000      -nan      -nan      -nan  2.000000      -nan      -nan      -nan      -nan  8.333333 12.000000 22.000000 20.000000  2.000000      -nan 
dram[5]:      -nan      -nan      -nan      -nan      -nan      -nan      -nan      -nan      -nan      -nan 22.000000 22.000000 22.000000 20.000000  1.000000      -nan 
average row locality = 548/43 = 12.744186
number of total memory accesses made:
dram[0]:         0         0         0         0         0         0         0         0         0         0         0         0         0         0         0         0 
dram[1]:         0         0         0         0         0         0         0         0         0         0         0         0         0         0         0         0 
dram[2]:         0         0         0         0         0         0         0         0         0         0         0         0         0         0         0         0 
dram[3]:         0         0         0         0         0         0         0         0         0         0         0         0         0         0         0         0 
dram[4]:         0         0         0         0         0         0         0         0         0         0         0         0         0         0         0         0 
dram[5]:         0         0         0         0         0         0         0         0         0         0         0         0         0         0         0         0 
total accesses: 0
min_bank_accesses = 0!
min_chip_accesses = 0!
number of total read accesses:
dram[0]:         4         0         1         0         0         0         0         0         0         0        20        22        22        22         0         0 
dram[1]:         2         0         0         0         0         0         0         0         0         0        20        22        24        22         0         3 
dram[2]:         0         0         0         1         0         1         0         0         0         1        20        22        22        21         0         0 
dram[3]:         0         0         0         1         0         1         0         0         0         0        20        22        22        20         0         0 
dram[4]:         0         1         0         0         0         1         0         0         0         0        24        23        22        20         2         0 
dram[5]:         0         0         0         0         0         0         0         0         0         0        22        22        22        20         1         0 
total reads: 538
min_bank_accesses = 0!
chip skew: 93/86 = 1.08
number of total write accesses:
dram[0]:         0         0         1         0         0         0         0         0         0         0         0         0         0         0         0         0 
dram[1]:         0         0         0         0         0         0         0         0         0         0         0         0         0         0         0         0 
dram[2]:         0         0         0         1         0         0         0         0         0         1         0         0         0         1         0         0 
dram[3]:         0         0         0         1         0         1         0         0         0         0         0         0         0         0         0         0 
dram[4]:         0         1         0         0         0         1         0         0         0         0         1         1         0         0         0         0 
dram[5]:         0         0         0         0         0         0         0         0         0         0         0         0         0         0         0         0 
total reads: 10
min_bank_accesses = 0!
min_chip_accesses = 0!
average mf latency per bank:
dram[0]:       1055    none         126    none      none      none      none      none      none      none         276       334       297       302    none      none  
dram[1]:          0    none      none      none      none      none      none      none      none      none         281       333       274       317    none         266
dram[2]:     none      none      none         126    none         272    none      none      none         126       275       344       294       314    none      none  
dram[3]:     none      none      none         125    none         126    none      none      none      none         290       364       300       314    none      none  
dram[4]:     none         126    none      none      none         125    none      none      none      none         307       329       274       314       267    none  
dram[5]:     none      none      none      none      none      none      none      none      none      none         273       356       293       313       273    none  
maximum mf latency per bank:
dram[0]:        283         0       252         0         0         0         0         0         0         0       302       397       334       372         0         0
dram[1]:          0         0         0         0         0         0         0         0         0         0       290       388       318       405         0       272
dram[2]:          0         0         0       252         0       272         0         0         0       252       293       387       355       454         0         0
dram[3]:          0         0         0       251         0       252         0         0         0         0       307       426       334       399         0         0
dram[4]:          0       252         0         0         0       251         0         0         0         0       288       422       319       386       272         0
dram[5]:          0         0         0         0         0         0         0         0         0         0       281       396       354       422       273         0

Number of Memory Banks Accessed per Memory Operation per Warp (from 0):
0	0	0	0	0	0	0	0	0	0	0	0	0	0	0	0	0	0	0	0	0	0	0	0	0	0	0	0	0	0	0	0	0	0	0	0	0	0	0	0	0	0	0	0	0	0	0	0	0	0	0	0	0	0	0	0	0	0	0	0	0	0	0	0	0	0	0	0	0	0	0	0	0	0	0	0	0	0	0	0	0	0	0	0	0	0	0	0	0	0	0	0	0	0	0	0	
Average # of Memory Banks Accessed per Memory Operation per Warp=-nan

position of mrq chosen
0	0	0	0	0	0	0	0	0	0	0	0	0	0	0	0	

average position of mrq chosen = -nan
Memory Partition 0: 
Cache L2_bank_000:
MSHR contents
MSHR: tag=0x80234400, atomic=0 1 entries : 0x7f218fcbae70 :  mf: uid= 33579, sid01:w00, part=0, addr=0x80234440, load , size=32, unknown  status = IN_PARTITION_DRAM (5989), 

Cache L2_bank_001:
MSHR contents

In Dram Latency Queue (total = 0): 
DRAM[0]: 16 bks, busW=4 BL=4 CL=12, tRRD=2 tCCD=6, tRCD=12 tRAS=28 tRP=12 tRC=40
n_cmd=7906 n_nop=7530 n_act=9 n_pre=3 n_req=92 n_rd=363 n_write=1 bw_util=0.09208
n_activity=1337 dram_eff=0.5445
bk0: 16a 7781i bk1: 0a 7902i bk2: 3a 7879i bk3: 0a 7903i bk4: 0a 7904i bk5: 0a 7904i bk6: 0a 7906i bk7: 0a 7908i bk8: 0a 7908i bk9: 0a 7908i bk10: 80a 7656i bk11: 88a 7443i bk12: 88a 7572i bk13: 88a 7357i bk14: 0a 7904i bk15: 0a 7905i 
dram_util_bins: 0 0 0 0 0 0 0 0 0 0
dram_eff_bins: 0 0 0 0 0 0 0 0 0 0
mrqq: max=9 avg=0.421326
Memory Partition 1: 
Cache L2_bank_002:
MSHR contents

Cache L2_bank_003:
MSHR contents

In Dram Latency Queue (total = 0): 
DRAM[1]: 16 bks, busW=4 BL=4 CL=12, tRRD=2 tCCD=6, tRCD=12 tRAS=28 tRP=12 tRC=40
n_cmd=7906 n_nop=7528 n_act=6 n_pre=0 n_req=93 n_rd=372 n_write=0 bw_util=0.09411
n_activity=1268 dram_eff=0.5868
bk0: 8a 7866i bk1: 0a 7902i bk2: 0a 7903i bk3: 0a 7905i bk4: 0a 7905i bk5: 0a 7905i bk6: 0a 7906i bk7: 0a 7909i bk8: 0a 7909i bk9: 0a 7910i bk10: 80a 7654i bk11: 88a 7435i bk12: 96a 7546i bk13: 88a 7431i bk14: 0a 7904i bk15: 12a 7862i 
dram_util_bins: 0 0 0 0 0 0 0 0 0 0
dram_eff_bins: 0 0 0 0 0 0 0 0 0 0
mrqq: max=9 avg=0.441943
Memory Partition 2: 
Cache L2_bank_004:
MSHR contents

Cache L2_bank_005:
MSHR contents

In Dram Latency Queue (total = 0): 
DRAM[2]: 16 bks, busW=4 BL=4 CL=12, tRRD=2 tCCD=6, tRCD=12 tRAS=28 tRP=12 tRC=40
n_cmd=7906 n_nop=7544 n_act=7 n_pre=0 n_req=91 n_rd=352 n_write=3 bw_util=0.08981
n_activity=1273 dram_eff=0.5577
bk0: 0a 7906i bk1: 0a 7907i bk2: 0a 7907i bk3: 4a 7878i bk4: 0a 7905i bk5: 4a 7882i bk6: 0a 7906i bk7: 0a 7908i bk8: 0a 7908i bk9: 4a 7879i bk10: 80a 7662i bk11: 88a 7403i bk12: 88a 7517i bk13: 84a 7347i bk14: 0a 7904i bk15: 0a 7905i 
dram_util_bins: 0 0 0 0 0 0 0 0 0 0
dram_eff_bins: 0 0 0 0 0 0 0 0 0 0
mrqq: max=14 avg=0.567291
Memory Partition 3: 
Cache L2_bank_006:
MSHR contents

Cache L2_bank_007:
MSHR contents

In Dram Latency Queue (total = 0): 
DRAM[3]: 16 bks, busW=4 BL=4 CL=12, tRRD=2 tCCD=6, tRCD=12 tRAS=28 tRP=12 tRC=40
n_cmd=7906 n_nop=7554 n_act=6 n_pre=0 n_req=88 n_rd=344 n_write=2 bw_util=0.08753
n_activity=1181 dram_eff=0.5859
bk0: 0a 7906i bk1: 0a 7907i bk2: 0a 7908i bk3: 4a 7879i bk4: 0a 7906i bk5: 4a 7877i bk6: 0a 7904i bk7: 0a 7906i bk8: 0a 7907i bk9: 0a 7907i bk10: 80a 7643i bk11: 88a 7396i bk12: 88a 7571i bk13: 80a 7421i bk14: 0a 7902i bk15: 0a 7904i 
dram_util_bins: 0 0 0 0 0 0 0 0 0 0
dram_eff_bins: 0 0 0 0 0 0 0 0 0 0
mrqq: max=12 avg=0.539843
Memory Partition 4: 
Cache L2_bank_008:
MSHR contents

Cache L2_bank_009:
MSHR contents

In Dram Latency Queue (total = 0): 
DRAM[4]: 16 bks, busW=4 BL=4 CL=12, tRRD=2 tCCD=6, tRCD=12 tRAS=28 tRP=12 tRC=40
n_cmd=7906 n_nop=7517 n_act=10 n_pre=3 n_req=97 n_rd=372 n_write=4 bw_util=0.09512
n_activity=1404 dram_eff=0.5356
bk0: 0a 7902i bk1: 4a 7875i bk2: 0a 7902i bk3: 0a 7907i bk4: 0a 7907i bk5: 4a 7879i bk6: 0a 7907i bk7: 0a 7910i bk8: 0a 7911i bk9: 0a 7912i bk10: 96a 7552i bk11: 92a 7328i bk12: 88a 7582i bk13: 80a 7427i bk14: 8a 7869i bk15: 0a 7901i 
dram_util_bins: 0 0 0 0 0 0 0 0 0 0
dram_eff_bins: 0 0 0 0 0 0 0 0 0 0
mrqq: max=12 avg=0.44384
Memory Partition 5: 
Cache L2_bank_010:
MSHR contents

Cache L2_bank_011:
MSHR contents

In Dram Latency Queue (total = 0): 
DRAM[5]: 16 bks, busW=4 BL=4 CL=12, tRRD=2 tCCD=6, tRCD=12 tRAS=28 tRP=12 tRC=40
n_cmd=7906 n_nop=7553 n_act=5 n_pre=0 n_req=87 n_rd=348 n_write=0 bw_util=0.08803
n_activity=1147 dram_eff=0.6068
bk0: 0a 7905i bk1: 0a 7906i bk2: 0a 7906i bk3: 0a 7906i bk4: 0a 7906i bk5: 0a 7907i bk6: 0a 7907i bk7: 0a 7907i bk8: 0a 7907i bk9: 0a 7907i bk10: 88a 7620i bk11: 88a 7374i bk12: 88a 7513i bk13: 80a 7359i bk14: 4a 7882i bk15: 0a 7903i 
dram_util_bins: 0 0 0 0 0 0 0 0 0 0
dram_eff_bins: 0 0 0 0 0 0 0 0 0 0
mrqq: max=11 avg=0.534025

========= L2 cache stats =========
L2_cache_bank[0]: Access = 77, Miss = 47, Miss_rate = 0.610, Pending_hits = 6, Reservation_fails = 231
L2_cache_bank[1]: Access = 44, Miss = 44, Miss_rate = 1.000, Pending_hits = 0, Reservation_fails = 0
L2_cache_bank[2]: Access = 61, Miss = 46, Miss_rate = 0.754, Pending_hits = 3, Reservation_fails = 107
L2_cache_bank[3]: Access = 47, Miss = 47, Miss_rate = 1.000, Pending_hits = 0, Reservation_fails = 0
L2_cache_bank[4]: Access = 42, Miss = 42, Miss_rate = 1.000, Pending_hits = 0, Reservation_fails = 0
L2_cache_bank[5]: Access = 46, Miss = 46, Miss_rate = 1.000, Pending_hits = 0, Reservation_fails = 0
L2_cache_bank[6]: Access = 45, Miss = 42, Miss_rate = 0.933, Pending_hits = 0, Reservation_fails = 0
L2_cache_bank[7]: Access = 46, Miss = 44, Miss_rate = 0.957, Pending_hits = 0, Reservation_fails = 0
L2_cache_bank[8]: Access = 56, Miss = 48, Miss_rate = 0.857, Pending_hits = 0, Reservation_fails = 0
L2_cache_bank[9]: Access = 45, Miss = 45, Miss_rate = 1.000, Pending_hits = 0, Reservation_fails = 0
L2_cache_bank[10]: Access = 45, Miss = 45, Miss_rate = 1.000, Pending_hits = 0, Reservation_fails = 0
L2_cache_bank[11]: Access = 42, Miss = 42, Miss_rate = 1.000, Pending_hits = 0, Reservation_fails = 0
L2_total_cache_accesses = 596
L2_total_cache_misses = 538
L2_total_cache_miss_rate = 0.9027
L2_total_cache_pending_hits = 9
L2_total_cache_reservation_fails = 338
L2_total_cache_breakdown:
	L2_cache_stats_breakdown[GLOBAL_ACC_R][MISS] = 523
	L2_cache_stats_breakdown[CONST_ACC_R][HIT] = 11
	L2_cache_stats_breakdown[CONST_ACC_R][HIT_RESERVED] = 3
	L2_cache_stats_breakdown[CONST_ACC_R][MISS] = 1
	L2_cache_stats_breakdown[CONST_ACC_R][RESERVATION_FAIL] = 111
	L2_cache_stats_breakdown[GLOBAL_ACC_W][HIT] = 16
	L2_cache_stats_breakdown[GLOBAL_ACC_W][MISS] = 10
	L2_cache_stats_breakdown[INST_ACC_R][HIT] = 22
	L2_cache_stats_breakdown[INST_ACC_R][HIT_RESERVED] = 6
	L2_cache_stats_breakdown[INST_ACC_R][MISS] = 4
	L2_cache_stats_breakdown[INST_ACC_R][RESERVATION_FAIL] = 227
L2_cache_data_port_util = 0.002
L2_cache_fill_port_util = 0.030

icnt_total_pkts_mem_to_simt=2846
icnt_total_pkts_simt_to_mem=622
LD_mem_lat_dist  0 0 0 0 0 0 0 0 0 0 0 0 0 0 0 0 0 0 0 0 0 0 0 0 0 0 0
ST_mem_lat_dist  0 0 0 0 0 0 0 0 0 0 0 0 0 0 0 0 0 0 0 0 0 0 0 0 0 0 0
----------------------------Interconnect-DETAILS--------------------------------
Class 0:
Packet latency average = 8.92114
	minimum = 6
	maximum = 34
Network latency average = 8.73238
	minimum = 6
	maximum = 34
Slowest packet = 14
Flit latency average = 7.0271
	minimum = 6
	maximum = 34
Slowest flit = 14
Fragmentation average = 0
	minimum = 0
	maximum = 0
Injected packet rate average = 0.00737031
	minimum = 0.00550918 (at node 13)
	maximum = 0.0128548 (at node 15)
Accepted packet rate average = 0.00737031
	minimum = 0.00550918 (at node 13)
	maximum = 0.0128548 (at node 15)
Injected flit rate average = 0.0214431
	minimum = 0.00550918 (at node 13)
	maximum = 0.0572621 (at node 15)
Accepted flit rate average= 0.0214431
	minimum = 0.00701169 (at node 19)
	maximum = 0.0440735 (at node 1)
Injected packet length average = 2.9094
Accepted packet length average = 2.9094
Total in-flight flits = 0 (0 measured)
====== Overall Traffic Statistics ======
====== Traffic class 0 ======
Packet latency average = 8.92114 (1 samples)
	minimum = 6 (1 samples)
	maximum = 34 (1 samples)
Network latency average = 8.73238 (1 samples)
	minimum = 6 (1 samples)
	maximum = 34 (1 samples)
Flit latency average = 7.0271 (1 samples)
	minimum = 6 (1 samples)
	maximum = 34 (1 samples)
Fragmentation average = 0 (1 samples)
	minimum = 0 (1 samples)
	maximum = 0 (1 samples)
Injected packet rate average = 0.00737031 (1 samples)
	minimum = 0.00550918 (1 samples)
	maximum = 0.0128548 (1 samples)
Accepted packet rate average = 0.00737031 (1 samples)
	minimum = 0.00550918 (1 samples)
	maximum = 0.0128548 (1 samples)
Injected flit rate average = 0.0214431 (1 samples)
	minimum = 0.00550918 (1 samples)
	maximum = 0.0572621 (1 samples)
Accepted flit rate average = 0.0214431 (1 samples)
	minimum = 0.00701169 (1 samples)
	maximum = 0.0440735 (1 samples)
Injected packet size average = 2.9094 (1 samples)
Accepted packet size average = 2.9094 (1 samples)
Hops average = 1 (1 samples)
----------------------------END-of-Interconnect-DETAILS-------------------------
GPGPU-Sim API: Stream Manager State


gpgpu_simulation_time = 0 days, 0 hrs, 0 min, 4 sec (4 sec)
gpgpu_simulation_rate = 229434 (inst/sec)
gpgpu_simulation_rate = 1497 (cycle/sec)
GPGPU-Sim: detected inactive GPU simulation thread

GPGPU-Sim PTX: cudaLaunch for 0x0x405636 (mode=performance simulation) on stream 0
GPGPU-Sim PTX: pushing kernel '_Z6KernelP4NodePiPbS2_S1_S2_i' to stream 0, gridDim= (256,1,1) blockDim = (256,1,1) 
[...]
traffic_breakdown_coretomem[GLOBAL_ACC_W] = 16537152 {40:412690,72:78,136:176,}
traffic_breakdown_coretomem[INST_ACC_R] = 480 {8:60,}
traffic_breakdown_memtocore[CONST_ACC_R] = 1080 {72:15,}
traffic_breakdown_memtocore[GLOBAL_ACC_R] = 84428392 {136:620797,}
traffic_breakdown_memtocore[GLOBAL_ACC_W] = 3303552 {8:412944,}
traffic_breakdown_memtocore[INST_ACC_R] = 8160 {136:60,}
maxmrqlatency = 1489 
maxdqlatency = 0 
maxmflatency = 2293 
averagemflatency = 396 
max_icnt2mem_latency = 938 
max_icnt2sh_latency = 762609 
mrq_lat_table:42323 	1344 	4059 	4395 	5962 	2203 	1087 	1114 	580 	38 	8 	0 	0 	0 	0 	0 	0 	0 	0 	0 	0 	0 	0 	0 	0 	0 	0 	0 	0 	0 	0 	0 	
dq_lat_table:0 	0 	0 	0 	0 	0 	0 	0 	0 	0 	0 	0 	0 	0 	0 	0 	0 	0 	0 	0 	0 	0 	0 	0 	0 	0 	0 	0 	0 	0 	0 	0 	
mf_lat_table:0 	0 	0 	0 	0 	0 	0 	135177 	708203 	189585 	785 	6 	0 	0 	0 	0 	0 	0 	0 	0 	0 	0 	0 	0 	0 	0 	0 	0 	0 	0 	0 	0 	
icnt2mem_lat_table:0 	0 	0 	85211 	30589 	81259 	321682 	244563 	266335 	4177 	0 	0 	0 	0 	0 	0 	0 	0 	0 	0 	0 	0 	0 	0 	
icnt2sh_lat_table:0 	0 	0 	39795 	294494 	268620 	17782 	121 	0 	0 	2 	9 	35 	889 	9275 	18562 	43666 	98876 	169442 	72188 	0 	0 	0 	0 	
mf_lat_pw_table:0 	0 	0 	0 	0 	0 	0 	101 	1421 	10 	0 	0 	0 	0 	0 	0 	0 	0 	0 	0 	0 	0 	0 	0 	0 	0 	0 	0 	0 	0 	0 	0 	
maximum concurrent accesses to same row:
dram[0]:        30        30        24        22        29        28        32        38        39        37        23        29        32        32        34        34 
dram[1]:        30        29        56        34        24        17        30        26        37        26        22        22        32        35        43        38 
dram[2]:        35        30        45        51        31        24        32        36        33        34        31        26        32        35        32        55 
dram[3]:        33        23        33        43        34        25        25        30        35        20        21        24        32        32        34        37 
dram[4]:        30        30        24        37        31        32        33        32        33        27        31        22        34        32        32        34 
dram[5]:        30        25        27        33        21        22        27        26        28        21        32        29        32        32        32        33 
maximum service time to same row:
dram[0]:     54343     43366     56510     46012     57164     52993     48791     47432     70292     41625     66300     53006     86215     71708     91460    102204 
dram[1]:     64237     65304     71846     52141    102994     67235     43255     40112     75474     73852     50154     54717     79976     74128     72593     94281 
dram[2]:     57405     57619     60898     61249     49795     39397     63610     57797     61203     59094     60989     51644     62970     88319     79212    146186 
dram[3]:     53364     55878     81907     99987     44872     40484     50648     41343     47938     59359     41366     68653     64597    101955     60806     67693 
dram[4]:     54419     54131     47527     78635     81669     72741     58969     62070     53882     46218     41642     60753    114768     79249     67347     97388 
dram[5]:     79393     64291    113326     53654    103214     70605     64925     50291     67314     66770     53408     55128     87735     96858    131625    135738 
average row accesses per activate:
dram[0]:  3.336634  3.521327  3.488987  3.647619  4.365517  4.173077  3.221312  3.325000  4.750000  4.276243  3.500000  3.247525  4.730000  3.950820  7.421052  5.341772 
dram[1]:  3.723809  3.742574  3.578475  3.632076  3.402913  3.183575  3.293436  2.956835  3.150198  3.472973  3.357143  3.189574  4.243478  4.651376  5.708861  6.287671 
dram[2]:  3.288288  3.114537  3.864130  4.078652  3.891026  3.838323  4.206897  4.580838  3.691542  3.596244  2.914980  2.883817  4.851485  4.369370  7.200000  6.796875 
dram[3]:  3.261062  3.019763  3.729064  3.546296  4.105263  3.616667  3.870647  3.612440  3.528037  3.394737  2.728682  2.723320  4.206897  4.532110  5.352941  5.506024 
dram[4]:  3.867052  4.513699  3.426471  3.569231  3.767442  4.163522  3.406542  3.712644  4.639241  4.037234  3.440414  3.716981  4.234783  4.162162  8.211538 10.675675 
dram[5]:  3.466019  3.260684  3.019011  2.878893  3.290476  3.415842  4.270588  3.800000  3.413333  3.418803  2.959460  3.077982  4.673267  4.398230  6.898305  6.714286 
average row locality = 63113/16955 = 3.722383
number of total memory accesses made:
dram[0]:         0         0         0         0         0         0         0         0         0         0         0         0         0         0         0         0 
dram[1]:         0         0         0         0         0         0         0         0         0         0         0         0         0         0         0         0 
dram[2]:         0         0         0         0         0         0         0         0         0         0         0         0         0         0         0         0 
dram[3]:         0         0         0         0         0         0         0         0         0         0         0         0         0         0         0         0 
dram[4]:         0         0         0         0         0         0         0         0         0         0         0         0         0         0         0         0 
dram[5]:         0         0         0         0         0         0         0         0         0         0         0         0         0         0         0         0 
total accesses: 0
min_bank_accesses = 0!
min_chip_accesses = 0!
number of total read accesses:
dram[0]:       491       524       552       537       490       499       608       602       553       575       520       531       441       445       421       421 
dram[1]:       534       535       543       529       534       525       639       636       599       578       562       531       455       475       447       455 
dram[2]:       519       507       512       508       463       499       562       586       565       586       557       566       463       457       431       433 
dram[3]:       525       531       532       531       480       501       585       578       577       586       552       550       451       456       453       453 
dram[4]:       495       489       506       508       498       503       571       515       567       577       535       485       454       432       427       395 
dram[5]:       507       539       570       571       518       525       558       580       579       585       533       534       438       458       405       422 
total reads: 49621
bank skew: 639/395 = 1.62
chip skew: 8577/7957 = 1.08
number of total write accesses:
dram[0]:       183       219       240       229       143       152       178       196       188       199       117       125        32        37         2         1 
dram[1]:       248       221       255       241       167       134       214       186       198       193       190       142        33        32         4         4 
dram[2]:       211       200       199       218       144       142       170       179       177       180       163       129        27        28         1         2 
dram[3]:       212       233       225       235       144       150       193       177       178       188       152       139        37        38         2         4 
dram[4]:       174       170       193       188       150       159       158       131       166       182       129       106        33        30         0         0 
dram[5]:       207       224       224       261       173       165       168       180       189       215       124       137        34        39         2         1 
total reads: 13492
min_bank_accesses = 0!
chip skew: 2462/1969 = 1.25
average mf latency per bank:
dram[0]:       2933      2759      2870      2997      3655      3509      3116      3086      2916      2869      6559      6584     13792     13620     21450     21677
dram[1]:       2636      2832      2860      3139      3450      3805      2951      3175      2975      3067      5577      6581     13691     13512     20886     20898
dram[2]:       2824      2909      3156      3057      3856      3695      3346      3135      3149      3097      5767      6552     13320     14443     20811     21207
dram[3]:       2817      2685      3001      2996      3662      3543      3147      3197      3021      2884      5915      6209     13271     13760     20177     20539
dram[4]:       3975      3151      4228      3290      4807      3651      4533      3746      4198      2953     38878      7509     18142     15098     28739     23650
dram[5]:       2841      2783      2812      2784      3240      3428      3195      3205      2824      2855      6512      6594     13673     13701     21881     21852
maximum mf latency per bank:
dram[0]:       1317      1456      1048      1376      1151      1211      1145      1118      2147      1087      1107      1336      1497      1483      1488      1639
dram[1]:       1035      1017       971       942       908      1022      1040       952       983      1085       890       909      1007      1048       995       949
dram[2]:        908      1194      1835      1122      1130      1177      1087      1484      1137      1214      1183      1569      1119      1346      1091      1107
dram[3]:        915       917       920      1021      1110       975       893       914       952      1411       938       909      1008       892      1121       932
dram[4]:       1804      1952      1733      1405      1366      1491      1241      1208      2293      1840      1803      1469      2191      1839      1664      1509
dram[5]:        873       974       956       957       831       937       807       901       914       991      1102       981       892      1129       931       982

Number of Memory Banks Accessed per Memory Operation per Warp (from 0):
0	0	0	0	0	0	0	0	0	0	0	0	0	0	0	0	0	0	0	0	0	0	0	0	0	0	0	0	0	0	0	0	0	0	0	0	0	0	0	0	0	0	0	0	0	0	0	0	0	0	0	0	0	0	0	0	0	0	0	0	0	0	0	0	0	0	0	0	0	0	0	0	0	0	0	0	0	0	0	0	0	0	0	0	0	0	0	0	0	0	0	0	0	0	0	0	
Average # of Memory Banks Accessed per Memory Operation per Warp=-nan

position of mrq chosen
0	0	0	0	0	0	0	0	0	0	0	0	0	0	0	0	

average position of mrq chosen = -nan
Memory Partition 0: 
Cache L2_bank_000:
MSHR contents

Cache L2_bank_001:
MSHR contents

In Dram Latency Queue (total = 0): 
DRAM[0]: 16 bks, busW=4 BL=4 CL=12, tRRD=2 tCCD=6, tRCD=12 tRAS=28 tRP=12 tRC=40
n_cmd=1009654 n_nop=965948 n_act=2714 n_pre=2698 n_req=10451 n_rd=32840 n_write=5454 bw_util=0.07586
n_activity=199568 dram_eff=0.3838
bk0: 1964a 993334i bk1: 2096a 991554i bk2: 2208a 991315i bk3: 2148a 989887i bk4: 1960a 995050i bk5: 1996a 994850i bk6: 2432a 989541i bk7: 2408a 988312i bk8: 2212a 990271i bk9: 2300a 990980i bk10: 2080a 994231i bk11: 2124a 990951i bk12: 1764a 996946i bk13: 1780a 995627i bk14: 1684a 1000237i bk15: 1684a 999920i 
dram_util_bins: 0 0 0 0 0 0 0 0 0 0
dram_eff_bins: 0 0 0 0 0 0 0 0 0 0
mrqq: max=16 avg=0.226908
Memory Partition 1: 
Cache L2_bank_002:
MSHR contents

Cache L2_bank_003:
MSHR contents

In Dram Latency Queue (total = 0): 
DRAM[1]: 16 bks, busW=4 BL=4 CL=12, tRRD=2 tCCD=6, tRCD=12 tRAS=28 tRP=12 tRC=40
n_cmd=1009654 n_nop=963259 n_act=3083 n_pre=3067 n_req=11039 n_rd=34308 n_write=5937 bw_util=0.07972
n_activity=214608 dram_eff=0.3751
bk0: 2136a 992657i bk1: 2140a 993133i bk2: 2172a 990421i bk3: 2116a 991830i bk4: 2136a 993732i bk5: 2100a 994397i bk6: 2556a 988844i bk7: 2544a 988662i bk8: 2396a 991061i bk9: 2312a 991165i bk10: 2248a 992108i bk11: 2124a 993180i bk12: 1820a 998949i bk13: 1900a 997603i bk14: 1788a 1000803i bk15: 1820a 1001017i 
dram_util_bins: 0 0 0 0 0 0 0 0 0 0
dram_eff_bins: 0 0 0 0 0 0 0 0 0 0
mrqq: max=16 avg=0.131087
Memory Partition 2: 
Cache L2_bank_004:
MSHR contents

Cache L2_bank_005:
MSHR contents

In Dram Latency Queue (total = 0): 
DRAM[2]: 16 bks, busW=4 BL=4 CL=12, tRRD=2 tCCD=6, tRCD=12 tRAS=28 tRP=12 tRC=40
n_cmd=1009654 n_nop=966134 n_act=2713 n_pre=2697 n_req=10384 n_rd=32856 n_write=5254 bw_util=0.07549
n_activity=198248 dram_eff=0.3845
bk0: 2076a 993556i bk1: 2028a 991666i bk2: 2048a 991350i bk3: 2032a 992649i bk4: 1852a 996084i bk5: 1996a 994654i bk6: 2248a 991222i bk7: 2344a 991134i bk8: 2260a 991974i bk9: 2344a 991831i bk10: 2228a 991305i bk11: 2264a 990576i bk12: 1852a 997527i bk13: 1828a 996279i bk14: 1724a 1000624i bk15: 1732a 1001412i 
dram_util_bins: 0 0 0 0 0 0 0 0 0 0
dram_eff_bins: 0 0 0 0 0 0 0 0 0 0
mrqq: max=16 avg=0.211675
Memory Partition 3: 
Cache L2_bank_006:
MSHR contents

Cache L2_bank_007:
MSHR contents

In Dram Latency Queue (total = 0): 
DRAM[3]: 16 bks, busW=4 BL=4 CL=12, tRRD=2 tCCD=6, tRCD=12 tRAS=28 tRP=12 tRC=40
n_cmd=1009654 n_nop=964759 n_act=2986 n_pre=2970 n_req=10648 n_rd=33364 n_write=5575 bw_util=0.07713
n_activity=206367 dram_eff=0.3774
bk0: 2100a 992295i bk1: 2124a 991688i bk2: 2128a 991541i bk3: 2124a 990937i bk4: 1920a 995312i bk5: 2004a 994358i bk6: 2340a 990863i bk7: 2312a 991539i bk8: 2308a 992118i bk9: 2344a 990396i bk10: 2208a 992186i bk11: 2200a 991388i bk12: 1804a 998723i bk13: 1824a 997733i bk14: 1812a 1000474i bk15: 1812a 1000877i 
dram_util_bins: 0 0 0 0 0 0 0 0 0 0
dram_eff_bins: 0 0 0 0 0 0 0 0 0 0
mrqq: max=16 avg=0.140405
Memory Partition 4: 
Cache L2_bank_008:
MSHR contents

Cache L2_bank_009:
MSHR contents

In Dram Latency Queue (total = 0): 
DRAM[4]: 16 bks, busW=4 BL=4 CL=12, tRRD=2 tCCD=6, tRCD=12 tRAS=28 tRP=12 tRC=40
n_cmd=1009654 n_nop=968138 n_act=2450 n_pre=2434 n_req=9926 n_rd=31828 n_write=4804 bw_util=0.07256
n_activity=192081 dram_eff=0.3814
bk0: 1980a 994406i bk1: 1956a 993853i bk2: 2024a 991700i bk3: 2032a 992162i bk4: 1992a 993166i bk5: 2012a 992360i bk6: 2284a 990756i bk7: 2060a 990339i bk8: 2268a 991603i bk9: 2308a 989333i bk10: 2140a 991146i bk11: 1940a 992990i bk12: 1816a 995522i bk13: 1728a 995878i bk14: 1708a 1000043i bk15: 1580a 1001341i 
dram_util_bins: 0 0 0 0 0 0 0 0 0 0
dram_eff_bins: 0 0 0 0 0 0 0 0 0 0
mrqq: max=16 avg=0.22122
Memory Partition 5: 
Cache L2_bank_010:
MSHR contents

Cache L2_bank_011:
MSHR contents

In Dram Latency Queue (total = 0): 
DRAM[5]: 16 bks, busW=4 BL=4 CL=12, tRRD=2 tCCD=6, tRCD=12 tRAS=28 tRP=12 tRC=40
n_cmd=1009654 n_nop=964687 n_act=3009 n_pre=2993 n_req=10665 n_rd=33288 n_write=5677 bw_util=0.07718
n_activity=207556 dram_eff=0.3755
bk0: 2028a 992773i bk1: 2156a 992133i bk2: 2280a 988806i bk3: 2284a 988076i bk4: 2072a 993975i bk5: 2100a 992884i bk6: 2232a 992021i bk7: 2320a 991685i bk8: 2316a 991326i bk9: 2340a 989551i bk10: 2132a 993478i bk11: 2136a 992234i bk12: 1752a 998604i bk13: 1832a 997353i bk14: 1620a 1000862i bk15: 1688a 1001316i 
dram_util_bins: 0 0 0 0 0 0 0 0 0 0
dram_eff_bins: 0 0 0 0 0 0 0 0 0 0
mrqq: max=16 avg=0.159285

========= L2 cache stats =========
L2_cache_bank[0]: Access = 82070, Miss = 4076, Miss_rate = 0.050, Pending_hits = 22, Reservation_fails = 647
L2_cache_bank[1]: Access = 82780, Miss = 4134, Miss_rate = 0.050, Pending_hits = 19, Reservation_fails = 1966
L2_cache_bank[2]: Access = 82346, Miss = 4313, Miss_rate = 0.052, Pending_hits = 22, Reservation_fails = 109
L2_cache_bank[3]: Access = 83473, Miss = 4264, Miss_rate = 0.051, Pending_hits = 12, Reservation_fails = 0
L2_cache_bank[4]: Access = 81929, Miss = 4072, Miss_rate = 0.050, Pending_hits = 13, Reservation_fails = 1005
L2_cache_bank[5]: Access = 83189, Miss = 4142, Miss_rate = 0.050, Pending_hits = 11, Reservation_fails = 2811
L2_cache_bank[6]: Access = 82598, Miss = 4155, Miss_rate = 0.050, Pending_hits = 17, Reservation_fails = 1
L2_cache_bank[7]: Access = 83102, Miss = 4186, Miss_rate = 0.050, Pending_hits = 9, Reservation_fails = 0
L2_cache_bank[8]: Access = 122758, Miss = 4053, Miss_rate = 0.033, Pending_hits = 7, Reservation_fails = 560
L2_cache_bank[9]: Access = 83524, Miss = 3904, Miss_rate = 0.047, Pending_hits = 8, Reservation_fails = 1449
L2_cache_bank[10]: Access = 82645, Miss = 4108, Miss_rate = 0.050, Pending_hits = 12, Reservation_fails = 29
L2_cache_bank[11]: Access = 83402, Miss = 4214, Miss_rate = 0.051, Pending_hits = 6, Reservation_fails = 0
L2_total_cache_accesses = 1033816
L2_total_cache_misses = 49621
L2_total_cache_miss_rate = 0.0480
L2_total_cache_pending_hits = 158
L2_total_cache_reservation_fails = 8577
L2_total_cache_breakdown:
	L2_cache_stats_breakdown[GLOBAL_ACC_R][HIT] = 578124
	L2_cache_stats_breakdown[GLOBAL_ACC_R][HIT_RESERVED] = 26
	L2_cache_stats_breakdown[GLOBAL_ACC_R][MISS] = 42647
	L2_cache_stats_breakdown[GLOBAL_ACC_R][RESERVATION_FAIL] = 8233
	L2_cache_stats_breakdown[CONST_ACC_R][HIT] = 11
	L2_cache_stats_breakdown[CONST_ACC_R][HIT_RESERVED] = 3
	L2_cache_stats_breakdown[CONST_ACC_R][MISS] = 1
	L2_cache_stats_breakdown[CONST_ACC_R][RESERVATION_FAIL] = 111
	L2_cache_stats_breakdown[GLOBAL_ACC_W][HIT] = 405852
	L2_cache_stats_breakdown[GLOBAL_ACC_W][HIT_RESERVED] = 123
	L2_cache_stats_breakdown[GLOBAL_ACC_W][MISS] = 6969
	L2_cache_stats_breakdown[GLOBAL_ACC_W][RESERVATION_FAIL] = 6
	L2_cache_stats_breakdown[INST_ACC_R][HIT] = 50
	L2_cache_stats_breakdown[INST_ACC_R][HIT_RESERVED] = 6
	L2_cache_stats_breakdown[INST_ACC_R][MISS] = 4
	L2_cache_stats_breakdown[INST_ACC_R][RESERVATION_FAIL] = 227
L2_cache_data_port_util = 0.299
L2_cache_fill_port_util = 0.022

icnt_total_pkts_mem_to_simt=3517274
icnt_total_pkts_simt_to_mem=1447366
LD_mem_lat_dist  0 0 0 0 0 0 0 0 0 0 0 0 0 0 0 0 0 0 0 0 0 0 0 0 0 0 0
ST_mem_lat_dist  0 0 0 0 0 0 0 0 0 0 0 0 0 0 0 0 0 0 0 0 0 0 0 0 0 0 0
----------------------------Interconnect-DETAILS--------------------------------
Class 0:
Packet latency average = 9.50813
	minimum = 6
	maximum = 41
Network latency average = 9.14629
	minimum = 6
	maximum = 31
Slowest packet = 2064994
Flit latency average = 7.85616
	minimum = 6
	maximum = 27
Slowest flit = 4962079
Fragmentation average = 0
	minimum = 0
	maximum = 0
Injected packet rate average = 0.0293846
	minimum = 0.0176619 (at node 3)
	maximum = 0.0364452 (at node 21)
Accepted packet rate average = 0.0293846
	minimum = 0.0176619 (at node 3)
	maximum = 0.0364452 (at node 21)
Injected flit rate average = 0.0818615
	minimum = 0.0199047 (at node 3)
	maximum = 0.165405 (at node 21)
Accepted flit rate average= 0.0818615
	minimum = 0.0311186 (at node 18)
	maximum = 0.1455 (at node 6)
Injected packet length average = 2.78587
Accepted packet length average = 2.78587
Total in-flight flits = 0 (0 measured)
====== Overall Traffic Statistics ======
====== Traffic class 0 ======
Packet latency average = 35.0894 (8 samples)
	minimum = 6 (8 samples)
	maximum = 327.125 (8 samples)
Network latency average = 22.6502 (8 samples)
	minimum = 6 (8 samples)
	maximum = 246.25 (8 samples)
Flit latency average = 16.8933 (8 samples)
	minimum = 6 (8 samples)
	maximum = 244.625 (8 samples)
Fragmentation average = 0.0306842 (8 samples)
	minimum = 0 (8 samples)
	maximum = 159.125 (8 samples)
Injected packet rate average = 0.0544501 (8 samples)
	minimum = 0.0425043 (8 samples)
	maximum = 0.100418 (8 samples)
Accepted packet rate average = 0.0544501 (8 samples)
	minimum = 0.0425043 (8 samples)
	maximum = 0.100418 (8 samples)
Injected flit rate average = 0.13386 (8 samples)
	minimum = 0.0572634 (8 samples)
	maximum = 0.261503 (8 samples)
Accepted flit rate average = 0.13386 (8 samples)
	minimum = 0.073235 (8 samples)
	maximum = 0.229298 (8 samples)
Injected packet size average = 2.45839 (8 samples)
Accepted packet size average = 2.45839 (8 samples)
Hops average = 1 (8 samples)
----------------------------END-of-Interconnect-DETAILS-------------------------


gpgpu_simulation_time = 0 days, 0 hrs, 6 min, 21 sec (381 sec)
gpgpu_simulation_rate = 41729 (inst/sec)
gpgpu_simulation_rate = 2007 (cycle/sec)
GPGPU-Sim API: Stream Manager State
GPGPU-Sim: detected inactive GPU simulation thread
Kernel Executed 8 times
Processing time: 379389.281250 (ms)
Result stored in result.txt
