

        *** GPGPU-Sim Simulator Version 3.2.2  [build 0] ***


GPGPU-Sim PTX: simulation mode 0 (can change with PTX_SIM_MODE_FUNC environment variable:
               1=functional simulation only, 0=detailed performance simulator)
GPGPU-Sim: Configuration options:

-network_mode                           1 # Interconnection network mode
-inter_config_file   config_fermi_islip.icnt # Interconnection network config file
-gpgpu_ptx_use_cuobjdump                    1 # Use cuobjdump to extract ptx and sass from binaries
-gpgpu_experimental_lib_support                    0 # Try to extract code from cuda libraries [Broken because of unknown cudaGetExportTable]
-gpgpu_ptx_convert_to_ptxplus                    0 # Convert SASS (native ISA) to ptxplus and run ptxplus
-gpgpu_ptx_force_max_capability                   20 # Force maximum compute capability
-gpgpu_ptx_inst_debug_to_file                    0 # Dump executed instructions' debug information to file
-gpgpu_ptx_inst_debug_file       inst_debug.txt # Executed instructions' debug output file
-gpgpu_ptx_inst_debug_thread_uid                    1 # Thread UID for executed instructions' debug output
-gpgpu_simd_model                       1 # 1 = post-dominator
-gpgpu_shader_core_pipeline              1536:32 # shader core pipeline config, i.e., {<nthread>:<warpsize>}
-gpgpu_tex_cache:l1  4:128:24,L:R:m:N:L,F:128:4,128:2 # per-shader L1 texture cache  (READ-ONLY) config  {<nsets>:<bsize>:<assoc>,<rep>:<wr>:<alloc>:<wr_alloc>,<mshr>:<N>:<merge>,<mq>:<rf>}
-gpgpu_const_cache:l1 64:64:2,L:R:f:N:L,A:2:32,4 # per-shader L1 constant memory cache  (READ-ONLY) config  {<nsets>:<bsize>:<assoc>,<rep>:<wr>:<alloc>:<wr_alloc>,<mshr>:<N>:<merge>,<mq>} 
-gpgpu_cache:il1     4:128:4,L:R:f:N:L,A:2:32,4 # shader L1 instruction cache config  {<nsets>:<bsize>:<assoc>,<rep>:<wr>:<alloc>:<wr_alloc>,<mshr>:<N>:<merge>,<mq>} 
-gpgpu_cache:dl1     32:128:4,L:L:m:N:H,A:32:8,8 # per-shader L1 data cache config  {<nsets>:<bsize>:<assoc>,<rep>:<wr>:<alloc>:<wr_alloc>,<mshr>:<N>:<merge>,<mq> | none}
-gpgpu_cache:dl1PrefL1                 none # per-shader L1 data cache config  {<nsets>:<bsize>:<assoc>,<rep>:<wr>:<alloc>:<wr_alloc>,<mshr>:<N>:<merge>,<mq> | none}
-gpgpu_cache:dl1PreShared                 none # per-shader L1 data cache config  {<nsets>:<bsize>:<assoc>,<rep>:<wr>:<alloc>:<wr_alloc>,<mshr>:<N>:<merge>,<mq> | none}
-gmem_skip_L1D                          0 # global memory access skip L1D cache (implements -Xptxas -dlcm=cg, default=no skip)
-gpgpu_perfect_mem                      0 # enable perfect memory mode (no cache miss)
-n_regfile_gating_group                    4 # group of lanes that should be read/written together)
-gpgpu_clock_gated_reg_file                    0 # enable clock gated reg file for power calculations
-gpgpu_clock_gated_lanes                    0 # enable clock gated lanes for power calculations
-gpgpu_shader_registers                32768 # Number of registers per shader core. Limits number of concurrent CTAs. (default 8192)
-gpgpu_shader_cta                       8 # Maximum number of concurrent CTAs in shader (default 8)
-gpgpu_num_cta_barriers                   16 # Maximum number of named barriers per CTA (default 16)
-gpgpu_n_clusters                      15 # number of processing clusters
-gpgpu_n_cores_per_cluster                    1 # number of simd cores per cluster
-gpgpu_n_cluster_ejection_buffer_size                    8 # number of packets in ejection buffer
-gpgpu_n_ldst_response_buffer_size                    2 # number of response packets in ld/st unit ejection buffer
-gpgpu_shmem_size                   16384 # Size of shared memory per shader core (default 16kB)
-gpgpu_shmem_size                   49152 # Size of shared memory per shader core (default 16kB)
-gpgpu_shmem_size_PrefL1                16384 # Size of shared memory per shader core (default 16kB)
-gpgpu_shmem_size_PrefShared                16384 # Size of shared memory per shader core (default 16kB)
-gpgpu_shmem_num_banks                   32 # Number of banks in the shared memory in each shader core (default 16)
-gpgpu_shmem_limited_broadcast                    0 # Limit shared memory to do one broadcast per cycle (default on)
-gpgpu_shmem_warp_parts                    1 # Number of portions a warp is divided into for shared memory bank conflict check 
-gpgpu_warpdistro_shader                   -1 # Specify which shader core to collect the warp size distribution from
-gpgpu_warp_issue_shader                    0 # Specify which shader core to collect the warp issue distribution from
-gpgpu_local_mem_map                    1 # Mapping from local memory space address to simulated GPU physical address space (default = enabled)
-gpgpu_num_reg_banks                   16 # Number of register banks (default = 8)
-gpgpu_reg_bank_use_warp_id                    0 # Use warp ID in mapping registers to banks (default = off)
-gpgpu_operand_collector_num_units_sp                    6 # number of collector units (default = 4)
-gpgpu_operand_collector_num_units_sfu                    8 # number of collector units (default = 4)
-gpgpu_operand_collector_num_units_mem                    2 # number of collector units (default = 2)
-gpgpu_operand_collector_num_units_gen                    0 # number of collector units (default = 0)
-gpgpu_operand_collector_num_in_ports_sp                    2 # number of collector unit in ports (default = 1)
-gpgpu_operand_collector_num_in_ports_sfu                    1 # number of collector unit in ports (default = 1)
-gpgpu_operand_collector_num_in_ports_mem                    1 # number of collector unit in ports (default = 1)
-gpgpu_operand_collector_num_in_ports_gen                    0 # number of collector unit in ports (default = 0)
-gpgpu_operand_collector_num_out_ports_sp                    2 # number of collector unit in ports (default = 1)
-gpgpu_operand_collector_num_out_ports_sfu                    1 # number of collector unit in ports (default = 1)
-gpgpu_operand_collector_num_out_ports_mem                    1 # number of collector unit in ports (default = 1)
-gpgpu_operand_collector_num_out_ports_gen                    0 # number of collector unit in ports (default = 0)
-gpgpu_coalesce_arch                   13 # Coalescing arch (default = 13, anything else is off for now)
-gpgpu_num_sched_per_core                    2 # Number of warp schedulers per core
-gpgpu_max_insn_issue_per_warp                    1 # Max number of instructions that can be issued per warp in one cycle by scheduler
-gpgpu_simt_core_sim_order                    1 # Select the simulation order of cores in a cluster (0=Fix, 1=Round-Robin)
-gpgpu_pipeline_widths        2,1,1,2,1,1,2 # Pipeline widths ID_OC_SP,ID_OC_SFU,ID_OC_MEM,OC_EX_SP,OC_EX_SFU,OC_EX_MEM,EX_WB
-gpgpu_num_sp_units                     2 # Number of SP units (default=1)
-gpgpu_num_sfu_units                    1 # Number of SF units (default=1)
-gpgpu_num_mem_units                    1 # Number if ldst units (default=1) WARNING: not hooked up to anything
-gpgpu_scheduler                      gto # Scheduler configuration: < lrr | gto | two_level_active > If two_level_active:<num_active_warps>:<inner_prioritization>:<outer_prioritization>For complete list of prioritization values see shader.h enum scheduler_prioritization_typeDefault: gto
-gpgpu_dram_scheduler                    1 # 0 = fifo, 1 = FR-FCFS (defaul)
-gpgpu_dram_partition_queues              8:8:8:8 # i2$:$2d:d2$:$2i
-l2_ideal                               0 # Use a ideal L2 cache that always hit
-gpgpu_cache:dl2     64:512:8,L:B:m:W:L,A:32:4,4:0,32 # unified banked L2 data cache config  {<nsets>:<bsize>:<assoc>,<rep>:<wr>:<alloc>:<wr_alloc>,<mshr>:<N>:<merge>,<mq>}
-gpgpu_cache:dl2_texture_only                    0 # L2 cache used for texture only
-gpgpu_n_mem                            6 # number of memory modules (e.g. memory controllers) in gpu
-gpgpu_n_sub_partition_per_mchannel                    2 # number of memory subpartition in each memory module
-gpgpu_n_mem_per_ctrlr                    2 # number of memory chips per memory controller
-gpgpu_memlatency_stat                   14 # track and display latency statistics 0x2 enables MC, 0x4 enables queue logs
-gpgpu_frfcfs_dram_sched_queue_size                   16 # 0 = unlimited (default); # entries per chip
-gpgpu_dram_return_queue_size                  116 # 0 = unlimited (default); # entries per chip
-gpgpu_dram_buswidth                    4 # default = 4 bytes (8 bytes per cycle at DDR)
-gpgpu_dram_burst_length                    8 # Burst length of each DRAM request (default = 4 data bus cycle)
-dram_data_command_freq_ratio                    4 # Frequency ratio between DRAM data bus and command bus (default = 2 times, i.e. DDR)
-gpgpu_dram_timing_opt nbk=16:CCD=2:RRD=6:RCD=12:RAS=28:RP=12:RC=40: CL=12:WL=4:CDLR=5:WR=12:nbkgrp=4:CCDL=3:RTPL=2 # DRAM timing parameters = {nbk:tCCD:tRRD:tRCD:tRAS:tRP:tRC:CL:WL:tCDLR:tWR:nbkgrp:tCCDL:tRTPL}
-rop_latency                          120 # ROP queue latency (default 85)
-dram_latency                         100 # DRAM latency (default 30)
-gpgpu_mem_addr_mapping dramid@8;00000000.00000000.00000000.00000000.0000RRRR.RRRRRRRR.BBBCCCCB.CCSSSSSS # mapping memory address to dram model {dramid@<start bit>;<memory address map>}
-gpgpu_mem_addr_test                    0 # run sweep test to check address mapping for aliased address
-gpgpu_mem_address_mask                    1 # 0 = old addressing mask, 1 = new addressing mask, 2 = new add. mask + flipped bank sel and chip sel bits
-gpuwattch_xml_file  gpuwattch_gtx480.xml # GPUWattch XML file
-power_simulation_enabled                    0 # Turn on power simulator (1=On, 0=Off)
-power_per_cycle_dump                    0 # Dump detailed power output each cycle
-power_trace_enabled                    0 # produce a file for the power trace (1=On, 0=Off)
-power_trace_zlevel                     6 # Compression level of the power trace output log (0=no comp, 9=highest)
-steady_power_levels_enabled                    0 # produce a file for the steady power levels (1=On, 0=Off)
-steady_state_definition                  8:4 # allowed deviation:number of samples
-gpgpu_max_cycle                        0 # terminates gpu simulation early (0 = no limit)
-gpgpu_max_insn                         0 # terminates gpu simulation early (0 = no limit)
-gpgpu_max_cta                          0 # terminates gpu simulation early (0 = no limit)
-gpgpu_runtime_stat                   500 # display runtime statistics such as dram utilization {<freq>:<flag>}
-liveness_message_freq                    1 # Minimum number of seconds between simulation liveness messages (0 = always print)
-gpgpu_flush_l1_cache                    0 # Flush L1 cache at the end of each kernel call
-gpgpu_flush_l2_cache                    0 # Flush L2 cache at the end of each kernel call
-gpgpu_deadlock_detect                    1 # Stop the simulation at deadlock (1=on (default), 0=off)
-gpgpu_ptx_instruction_classification                    0 # if enabled will classify ptx instruction types per kernel (Max 255 kernels now)
-gpgpu_ptx_sim_mode                     0 # Select between Performance (default) or Functional simulation (1)
-gpgpu_clock_domains 700.0:700.0:700.0:924.0 # Clock Domain Frequencies in MhZ {<Core Clock>:<ICNT Clock>:<L2 Clock>:<DRAM Clock>}
-gpgpu_max_concurrent_kernel                    8 # maximum kernels that can run concurrently on GPU
-gpgpu_cflog_interval                    0 # Interval between each snapshot in control flow logger
-visualizer_enabled                     0 # Turn on visualizer output (1=On, 0=Off)
-visualizer_outputfile                 NULL # Specifies the output log file for visualizer
-visualizer_zlevel                      6 # Compression level of the visualizer output log (0=no comp, 9=highest)
-trace_enabled                          0 # Turn on traces
-trace_components                    none # comma seperated list of traces to enable. Complete list found in trace_streams.tup. Default none
-trace_sampling_core                    0 # The core which is printed using CORE_DPRINTF. Default 0
-trace_sampling_memory_partition                   -1 # The memory partition which is printed using MEMPART_DPRINTF. Default -1 (i.e. all)
-enable_ptx_file_line_stats                    1 # Turn on PTX source line statistic profiling. (1 = On)
-ptx_line_stats_filename gpgpu_inst_stats.txt # Output file for PTX source line statistics.
-save_embedded_ptx                      0 # saves ptx files embedded in binary as <n>.ptx
-keep                                   0 # keep intermediate files created by GPGPU-Sim when interfacing with external programs
-gpgpu_ptx_save_converted_ptxplus                    0 # Saved converted ptxplus to a file
-ptx_opcode_latency_int         4,13,4,5,145 # Opcode latencies for integers <ADD,MAX,MUL,MAD,DIV>Default 1,1,19,25,145
-ptx_opcode_latency_fp          4,13,4,5,39 # Opcode latencies for single precision floating points <ADD,MAX,MUL,MAD,DIV>Default 1,1,1,1,30
-ptx_opcode_latency_dp         8,19,8,8,330 # Opcode latencies for double precision floating points <ADD,MAX,MUL,MAD,DIV>Default 8,8,8,8,335
-ptx_opcode_initiation_int            1,2,2,1,8 # Opcode initiation intervals for integers <ADD,MAX,MUL,MAD,DIV>Default 1,1,4,4,32
-ptx_opcode_initiation_fp            1,2,1,1,4 # Opcode initiation intervals for single precision floating points <ADD,MAX,MUL,MAD,DIV>Default 1,1,1,1,5
-ptx_opcode_initiation_dp         8,16,8,8,130 # Opcode initiation intervals for double precision floating points <ADD,MAX,MUL,MAD,DIV>Default 8,8,8,8,130
DRAM Timing Options:
nbk                                    16 # number of banks
CCD                                     2 # column to column delay
RRD                                     6 # minimal delay between activation of rows in different banks
RCD                                    12 # row to column delay
RAS                                    28 # time needed to activate row
RP                                     12 # time needed to precharge (deactivate) row
RC                                     40 # row cycle time
CDLR                                    5 # switching from write to read (changes tWTR)
WR                                     12 # last data-in to row precharge
CL                                     12 # CAS latency
WL                                      4 # Write latency
nbkgrp                                  4 # number of bank groups
CCDL                                    3 # column to column delay between accesses to different bank groups
RTPL                                    2 # read to precharge delay between accesses to different bank groups
Total number of memory sub partition = 12
addr_dec_mask[CHIP]  = 0000000000000000 	high:64 low:0
addr_dec_mask[BK]    = 000000000000e100 	high:16 low:8
addr_dec_mask[ROW]   = 000000000fff0000 	high:28 low:16
addr_dec_mask[COL]   = 0000000000001eff 	high:13 low:0
addr_dec_mask[BURST] = 000000000000003f 	high:6 low:0
sub_partition_id_mask = 0000000000000100
GPGPU-Sim uArch: clock freqs: 700000000.000000:700000000.000000:700000000.000000:924000000.000000
GPGPU-Sim uArch: clock periods: 0.00000000142857142857:0.00000000142857142857:0.00000000142857142857:0.00000000108225108225
*** Initializing Memory Statistics ***
GPGPU-Sim uArch: interconnect node map (shaderID+MemID to icntID)
GPGPU-Sim uArch: Memory nodes ID start from index: 15
GPGPU-Sim uArch:    0   1   2   3   4
GPGPU-Sim uArch:    5   6   7   8   9
GPGPU-Sim uArch:   10  11  12  13  14
GPGPU-Sim uArch:   15  16  17  18  19
GPGPU-Sim uArch:   20  21  22  23  24
GPGPU-Sim uArch:   25  26
GPGPU-Sim uArch: interconnect node reverse map (icntID to shaderID+MemID)
GPGPU-Sim uArch: Memory nodes start from ID: 15
GPGPU-Sim uArch:    0   1   2   3   4
GPGPU-Sim uArch:    5   6   7   8   9
GPGPU-Sim uArch:   10  11  12  13  14
GPGPU-Sim uArch:   15  16  17  18  19
GPGPU-Sim uArch:   20  21  22  23  24
GPGPU-Sim uArch:   25  26
316bcbff5f8f022bb22b20bb4721e93e  /sciclone/data20/adwait/applications/benchmarks/CUDA/RAY/gpgpu_ptx_sim__RAY
GPGPU-Sim uArch: performance model initialization complete.
GPGPU-Sim PTX: __cudaRegisterFatBinary, fat_cubin_handle = 1, filename=rayTracing.cu
self exe links to: /sciclone/data20/adwait/applications/benchmarks/CUDA/RAY/gpgpu_ptx_sim__RAY
Running md5sum using "md5sum /sciclone/data20/adwait/applications/benchmarks/CUDA/RAY/gpgpu_ptx_sim__RAY "
Parsing file _cuobjdump_complete_output_WpmDiA
######### cuobjdump parser ########
## Adding new section ELF
Adding arch: sm_20
Adding identifier: rayTracing.cu
## Adding new section PTX
Adding ptx filename: _cuobjdump_1.ptx
Adding arch: sm_20
Adding identifier: rayTracing.cu
Done parsing!!!
GPGPU-Sim PTX: __cudaRegisterFunction _Z6renderPjP4Nodejjff : hostFun 0x0x40ce13, fat_cubin_handle = 1
GPGPU-Sim PTX: allocating stack frame region for .param "__cudaretf__Zmi6float3S_" from 0x0 to 0xc
GPGPU-Sim PTX: allocating stack frame region for .param "__cudaparmf1__Zmi6float3S_" from 0xc to 0x18
GPGPU-Sim PTX: allocating stack frame region for .param "__cudaparmf2__Zmi6float3S_" from 0x18 to 0x24
GPGPU-Sim PTX: allocating stack frame region for .param "__cudaretf__Z9normalize6float3" from 0x0 to 0xc
GPGPU-Sim PTX: allocating stack frame region for .param "__cudaparmf1__Z9normalize6float3" from 0xc to 0x18
GPGPU-Sim PTX: allocating stack frame region for .param "__cudaretf__Z18intersectionSphere5Rayon6float3f" from 0x0 to 0x4
GPGPU-Sim PTX: allocating stack frame region for .param "__cudaparmf1__Z18intersectionSphere5Rayon6float3f" from 0x4 to 0x1c
GPGPU-Sim PTX: allocating stack frame region for .param "__cudaparmf2__Z18intersectionSphere5Rayon6float3f" from 0x1c to 0x28
GPGPU-Sim PTX: allocating stack frame region for .param "__cudaparmf3__Z18intersectionSphere5Rayon6float3f" from 0x28 to 0x2c
GPGPU-Sim PTX: allocating stack frame region for .param "__cudaretf__Z16intersectionPlan5Rayon6float3S0_" from 0x0 to 0x4
GPGPU-Sim PTX: allocating stack frame region for .param "__cudaparmf1__Z16intersectionPlan5Rayon6float3S0_" from 0x4 to 0x1c
GPGPU-Sim PTX: allocating stack frame region for .param "__cudaparmf2__Z16intersectionPlan5Rayon6float3S0_" from 0x1c to 0x28
GPGPU-Sim PTX: allocating stack frame region for .param "__cudaparmf3__Z16intersectionPlan5Rayon6float3S0_" from 0x28 to 0x34
GPGPU-Sim PTX: allocating stack frame region for .param "__cudaretf__Z10getNormale6float3S_" from 0x0 to 0xc
GPGPU-Sim PTX: allocating stack frame region for .param "__cudaparmf1__Z10getNormale6float3S_" from 0xc to 0x18
GPGPU-Sim PTX: allocating stack frame region for .param "__cudaparmf2__Z10getNormale6float3S_" from 0x18 to 0x24
GPGPU-Sim PTX: allocating stack frame region for .param "__cudaretf__Z11getNormaleP6float3" from 0x0 to 0xc
GPGPU-Sim PTX: allocating stack frame region for .param "__cudaparmf1__Z11getNormaleP6float3" from 0xc to 0x18
GPGPU-Sim PTX: allocating stack frame region for .param "__cudaretf__Z14rgbaFloatToInt6float4" from 0x0 to 0x4
GPGPU-Sim PTX: allocating stack frame region for .param "__cudaparmf1__Z14rgbaFloatToInt6float4" from 0x4 to 0x14
GPGPU-Sim PTX: allocating stack frame region for .param "__cudaretf__Z12notShadowRayP4Node6float3S1_f" from 0x0 to 0x4
GPGPU-Sim PTX: allocating stack frame region for .param "__cudaparmf1__Z12notShadowRayP4Node6float3S1_f" from 0x4 to 0xc
GPGPU-Sim PTX: allocating stack frame region for .param "__cudaparmf2__Z12notShadowRayP4Node6float3S1_f" from 0xc to 0x18
GPGPU-Sim PTX: allocating stack frame region for .param "__cudaparmf3__Z12notShadowRayP4Node6float3S1_f" from 0x18 to 0x24
GPGPU-Sim PTX: allocating stack frame region for .param "__cudaparmf4__Z12notShadowRayP4Node6float3S1_f" from 0x24 to 0x28
GPGPU-Sim PTX: allocating stack frame region for .param "__cudaretf__Z15float2int_pow20f" from 0x0 to 0x4
GPGPU-Sim PTX: allocating stack frame region for .param "__cudaparmf1__Z15float2int_pow20f" from 0x4 to 0x8
GPGPU-Sim PTX: allocating stack frame region for .param "__cudaretf__Z15float2int_pow50f" from 0x0 to 0x4
GPGPU-Sim PTX: allocating stack frame region for .param "__cudaparmf1__Z15float2int_pow50f" from 0x4 to 0x8
GPGPU-Sim PTX: allocating stack frame region for .param "__cudaparmf1__ZN4dim3C1Ejjj" from 0x0 to 0x8
GPGPU-Sim PTX: allocating stack frame region for .param "__cudaparmf2__ZN4dim3C1Ejjj" from 0x8 to 0xc
GPGPU-Sim PTX: allocating stack frame region for .param "__cudaparmf3__ZN4dim3C1Ejjj" from 0xc to 0x10
GPGPU-Sim PTX: allocating stack frame region for .param "__cudaparmf4__ZN4dim3C1Ejjj" from 0x10 to 0x14
GPGPU-Sim PTX: instruction assembly for function '_Zmi6float3S_'...   done.
GPGPU-Sim PTX: finding reconvergence points for '_Zmi6float3S_'...
GPGPU-Sim PTX: Finding dominators for '_Zmi6float3S_'...
GPGPU-Sim PTX: Finding immediate dominators for '_Zmi6float3S_'...
GPGPU-Sim PTX: Finding postdominators for '_Zmi6float3S_'...
GPGPU-Sim PTX: Finding immediate postdominators for '_Zmi6float3S_'...
GPGPU-Sim PTX: pre-decoding instructions for '_Zmi6float3S_'...
GPGPU-Sim PTX: reconvergence points for _Zmi6float3S_...
GPGPU-Sim PTX: ... end of reconvergence points for _Zmi6float3S_
GPGPU-Sim PTX: ... done pre-decoding instructions for '_Zmi6float3S_'.
GPGPU-Sim PTX: instruction assembly for function '_Z9normalize6float3'...   done.
GPGPU-Sim PTX: finding reconvergence points for '_Z9normalize6float3'...
GPGPU-Sim PTX: Finding dominators for '_Z9normalize6float3'...
GPGPU-Sim PTX: Finding immediate dominators for '_Z9normalize6float3'...
GPGPU-Sim PTX: Finding postdominators for '_Z9normalize6float3'...
GPGPU-Sim PTX: Finding immediate postdominators for '_Z9normalize6float3'...
GPGPU-Sim PTX: pre-decoding instructions for '_Z9normalize6float3'...
GPGPU-Sim PTX: reconvergence points for _Z9normalize6float3...
GPGPU-Sim PTX: ... end of reconvergence points for _Z9normalize6float3
GPGPU-Sim PTX: ... done pre-decoding instructions for '_Z9normalize6float3'.
GPGPU-Sim PTX: instruction assembly for function '_Z18intersectionSphere5Rayon6float3f'...   done.
GPGPU-Sim PTX: finding reconvergence points for '_Z18intersectionSphere5Rayon6float3f'...
GPGPU-Sim PTX: Finding dominators for '_Z18intersectionSphere5Rayon6float3f'...
GPGPU-Sim PTX: Finding immediate dominators for '_Z18intersectionSphere5Rayon6float3f'...
GPGPU-Sim PTX: Finding postdominators for '_Z18intersectionSphere5Rayon6float3f'...
GPGPU-Sim PTX: Finding immediate postdominators for '_Z18intersectionSphere5Rayon6float3f'...
GPGPU-Sim PTX: pre-decoding instructions for '_Z18intersectionSphere5Rayon6float3f'...
GPGPU-Sim PTX: reconvergence points for _Z18intersectionSphere5Rayon6float3f...
GPGPU-Sim PTX:  1 (potential) branch divergence @  PC=0x250 (_1.ptx:173) @%p2 bra $Lt_2_3074;
GPGPU-Sim PTX:    immediate post dominator      @  PC=0x2c0 (_1.ptx:193) mov.f32 %f39, %f32;
GPGPU-Sim PTX:  2 (potential) branch divergence @  PC=0x260 (_1.ptx:175) bra.uni $Lt_2_2818;
GPGPU-Sim PTX:    immediate post dominator      @  PC=0x2c0 (_1.ptx:193) mov.f32 %f39, %f32;
GPGPU-Sim PTX:  3 (potential) branch divergence @  PC=0x280 (_1.ptx:180) @!%p3 bra $Lt_2_3586;
GPGPU-Sim PTX:    immediate post dominator      @  PC=0x2c0 (_1.ptx:193) mov.f32 %f39, %f32;
GPGPU-Sim PTX:  4 (potential) branch divergence @  PC=0x290 (_1.ptx:182) bra.uni $Lt_2_3330;
GPGPU-Sim PTX:    immediate post dominator      @  PC=0x2c0 (_1.ptx:193) mov.f32 %f39, %f32;
GPGPU-Sim PTX: ... end of reconvergence points for _Z18intersectionSphere5Rayon6float3f
GPGPU-Sim PTX: ... done pre-decoding instructions for '_Z18intersectionSphere5Rayon6float3f'.
GPGPU-Sim PTX: instruction assembly for function '_Z16intersectionPlan5Rayon6float3S0_'...   done.
GPGPU-Sim PTX: finding reconvergence points for '_Z16intersectionPlan5Rayon6float3S0_'...
GPGPU-Sim PTX: Finding dominators for '_Z16intersectionPlan5Rayon6float3S0_'...
GPGPU-Sim PTX: Finding immediate dominators for '_Z16intersectionPlan5Rayon6float3S0_'...
GPGPU-Sim PTX: Finding postdominators for '_Z16intersectionPlan5Rayon6float3S0_'...
GPGPU-Sim PTX: Finding immediate postdominators for '_Z16intersectionPlan5Rayon6float3S0_'...
GPGPU-Sim PTX: pre-decoding instructions for '_Z16intersectionPlan5Rayon6float3S0_'...
GPGPU-Sim PTX: reconvergence points for _Z16intersectionPlan5Rayon6float3S0_...
GPGPU-Sim PTX:  1 (potential) branch divergence @  PC=0x320 (_1.ptx:214) @!%p1 bra $Lt_3_2050;
GPGPU-Sim PTX:    immediate post dominator      @  PC=0x368 (_1.ptx:227) mov.f32 %f14, %f9;
GPGPU-Sim PTX:  2 (potential) branch divergence @  PC=0x330 (_1.ptx:216) bra.uni $Lt_3_1794;
GPGPU-Sim PTX:    immediate post dominator      @  PC=0x368 (_1.ptx:227) mov.f32 %f14, %f9;
GPGPU-Sim PTX: ... end of reconvergence points for _Z16intersectionPlan5Rayon6float3S0_
GPGPU-Sim PTX: ... done pre-decoding instructions for '_Z16intersectionPlan5Rayon6float3S0_'.
GPGPU-Sim PTX: instruction assembly for function '_Z10getNormale6float3S_'...   done.
GPGPU-Sim PTX: finding reconvergence points for '_Z10getNormale6float3S_'...
GPGPU-Sim PTX: Finding dominators for '_Z10getNormale6float3S_'...
GPGPU-Sim PTX: Finding immediate dominators for '_Z10getNormale6float3S_'...
GPGPU-Sim PTX: Finding postdominators for '_Z10getNormale6float3S_'...
GPGPU-Sim PTX: Finding immediate postdominators for '_Z10getNormale6float3S_'...
GPGPU-Sim PTX: pre-decoding instructions for '_Z10getNormale6float3S_'...
GPGPU-Sim PTX: reconvergence points for _Z10getNormale6float3S_...
GPGPU-Sim PTX: ... end of reconvergence points for _Z10getNormale6float3S_
GPGPU-Sim PTX: ... done pre-decoding instructions for '_Z10getNormale6float3S_'.
GPGPU-Sim PTX: instruction assembly for function '_Z11getNormaleP6float3'...   done.
GPGPU-Sim PTX: finding reconvergence points for '_Z11getNormaleP6float3'...
GPGPU-Sim PTX: Finding dominators for '_Z11getNormaleP6float3'...
GPGPU-Sim PTX: Finding immediate dominators for '_Z11getNormaleP6float3'...
GPGPU-Sim PTX: Finding postdominators for '_Z11getNormaleP6float3'...
GPGPU-Sim PTX: Finding immediate postdominators for '_Z11getNormaleP6float3'...
GPGPU-Sim PTX: pre-decoding instructions for '_Z11getNormaleP6float3'...
GPGPU-Sim PTX: reconvergence points for _Z11getNormaleP6float3...
GPGPU-Sim PTX: ... end of reconvergence points for _Z11getNormaleP6float3
GPGPU-Sim PTX: ... done pre-decoding instructions for '_Z11getNormaleP6float3'.
GPGPU-Sim PTX: instruction assembly for function '_Z14rgbaFloatToInt6float4'...   done.
GPGPU-Sim PTX: finding reconvergence points for '_Z14rgbaFloatToInt6float4'...
GPGPU-Sim PTX: Finding dominators for '_Z14rgbaFloatToInt6float4'...
GPGPU-Sim PTX: Finding immediate dominators for '_Z14rgbaFloatToInt6float4'...
GPGPU-Sim PTX: Finding postdominators for '_Z14rgbaFloatToInt6float4'...
GPGPU-Sim PTX: Finding immediate postdominators for '_Z14rgbaFloatToInt6float4'...
GPGPU-Sim PTX: pre-decoding instructions for '_Z14rgbaFloatToInt6float4'...
GPGPU-Sim PTX: reconvergence points for _Z14rgbaFloatToInt6float4...
GPGPU-Sim PTX: ... end of reconvergence points for _Z14rgbaFloatToInt6float4
GPGPU-Sim PTX: ... done pre-decoding instructions for '_Z14rgbaFloatToInt6float4'.
GPGPU-Sim PTX: allocating global region for "cnode" from 0x100 to 0x1a0 (global memory space)
GPGPU-Sim PTX: instruction assembly for function '_Z12notShadowRayP4Node6float3S1_f'...   done.
GPGPU-Sim PTX: finding reconvergence points for '_Z12notShadowRayP4Node6float3S1_f'...
GPGPU-Sim PTX: Finding dominators for '_Z12notShadowRayP4Node6float3S1_f'...
GPGPU-Sim PTX: Finding immediate dominators for '_Z12notShadowRayP4Node6float3S1_f'...
GPGPU-Sim PTX: Finding postdominators for '_Z12notShadowRayP4Node6float3S1_f'...
GPGPU-Sim PTX: Finding immediate postdominators for '_Z12notShadowRayP4Node6float3S1_f'...
GPGPU-Sim PTX: pre-decoding instructions for '_Z12notShadowRayP4Node6float3S1_f'...
GPGPU-Sim PTX: reconvergence points for _Z12notShadowRayP4Node6float3S1_f...
GPGPU-Sim PTX:  1 (potential) branch divergence @  PC=0x638 (_1.ptx:364) @%p1 bra $Lt_7_8450;
GPGPU-Sim PTX:    immediate post dominator      @  PC=0x828 (_1.ptx:441) mov.f32 %f58, 0f00000000;    // 0
GPGPU-Sim PTX:  2 (potential) branch divergence @  PC=0x658 (_1.ptx:369) @!%p2 bra $Lt_7_8962;
GPGPU-Sim PTX:    immediate post dominator      @  PC=0x6b8 (_1.ptx:385) mov.f32 %f28, %f20;
GPGPU-Sim PTX:  3 (potential) branch divergence @  PC=0x668 (_1.ptx:371) bra.uni $Lt_7_8706;
GPGPU-Sim PTX:    immediate post dominator      @  PC=0x6b8 (_1.ptx:385) mov.f32 %f28, %f20;
GPGPU-Sim PTX:  4 (potential) branch divergence @  PC=0x6c0 (_1.ptx:386) bra.uni $Lt_7_8194;
GPGPU-Sim PTX:    immediate post dominator      @  PC=0x828 (_1.ptx:441) mov.f32 %f58, 0f00000000;    // 0
GPGPU-Sim PTX:  5 (potential) branch divergence @  PC=0x7b0 (_1.ptx:418) @%p5 bra $Lt_7_9474;
GPGPU-Sim PTX:    immediate post dominator      @  PC=0x820 (_1.ptx:438) mov.f32 %f28, %f51;
GPGPU-Sim PTX:  6 (potential) branch divergence @  PC=0x7c0 (_1.ptx:420) bra.uni $Lt_7_9730;
GPGPU-Sim PTX:    immediate post dominator      @  PC=0x820 (_1.ptx:438) mov.f32 %f28, %f51;
GPGPU-Sim PTX:  7 (potential) branch divergence @  PC=0x7e0 (_1.ptx:425) @!%p6 bra $Lt_7_9986;
GPGPU-Sim PTX:    immediate post dominator      @  PC=0x820 (_1.ptx:438) mov.f32 %f28, %f51;
GPGPU-Sim PTX:  8 (potential) branch divergence @  PC=0x7f0 (_1.ptx:427) bra.uni $Lt_7_9730;
GPGPU-Sim PTX:    immediate post dominator      @  PC=0x820 (_1.ptx:438) mov.f32 %f28, %f51;
GPGPU-Sim PTX:  9 (potential) branch divergence @  PC=0x838 (_1.ptx:443) @!%p7 bra $Lt_7_10242;
GPGPU-Sim PTX:    immediate post dominator      @  PC=0x8e8 (_1.ptx:468) add.s32 %r1, %r1, 1;
GPGPU-Sim PTX: 10 (potential) branch divergence @  PC=0x8d8 (_1.ptx:463) @!%p8 bra $Lt_7_10242;
GPGPU-Sim PTX:    immediate post dominator      @  PC=0x8e8 (_1.ptx:468) add.s32 %r1, %r1, 1;
GPGPU-Sim PTX: 11 (potential) branch divergence @  PC=0x908 (_1.ptx:472) @%p9 bra $Lt_7_10754;
GPGPU-Sim PTX:    immediate post dominator      @  PC=0x960 (_1.ptx:486) selp.s32 %r10, 1, 0, %p11;
GPGPU-Sim PTX: 12 (potential) branch divergence @  PC=0x930 (_1.ptx:477) @%p10 bra $L_7_7170;
GPGPU-Sim PTX:    immediate post dominator      @  PC=0x960 (_1.ptx:486) selp.s32 %r10, 1, 0, %p11;
GPGPU-Sim PTX: 13 (potential) branch divergence @  PC=0x938 (_1.ptx:478) bra.uni $L_7_7938;
GPGPU-Sim PTX:    immediate post dominator      @  PC=0x960 (_1.ptx:486) selp.s32 %r10, 1, 0, %p11;
GPGPU-Sim PTX: ... end of reconvergence points for _Z12notShadowRayP4Node6float3S1_f
GPGPU-Sim PTX: ... done pre-decoding instructions for '_Z12notShadowRayP4Node6float3S1_f'.
GPGPU-Sim PTX: instruction assembly for function '_Z15float2int_pow20f'...   done.
GPGPU-Sim PTX: finding reconvergence points for '_Z15float2int_pow20f'...
GPGPU-Sim PTX: Finding dominators for '_Z15float2int_pow20f'...
GPGPU-Sim PTX: Finding immediate dominators for '_Z15float2int_pow20f'...
GPGPU-Sim PTX: Finding postdominators for '_Z15float2int_pow20f'...
GPGPU-Sim PTX: Finding immediate postdominators for '_Z15float2int_pow20f'...
GPGPU-Sim PTX: pre-decoding instructions for '_Z15float2int_pow20f'...
GPGPU-Sim PTX: reconvergence points for _Z15float2int_pow20f...
GPGPU-Sim PTX: ... end of reconvergence points for _Z15float2int_pow20f
GPGPU-Sim PTX: ... done pre-decoding instructions for '_Z15float2int_pow20f'.
GPGPU-Sim PTX: instruction assembly for function '_Z15float2int_pow50f'...   done.
GPGPU-Sim PTX: finding reconvergence points for '_Z15float2int_pow50f'...
GPGPU-Sim PTX: Finding dominators for '_Z15float2int_pow50f'...
GPGPU-Sim PTX: Finding immediate dominators for '_Z15float2int_pow50f'...
GPGPU-Sim PTX: Finding postdominators for '_Z15float2int_pow50f'...
GPGPU-Sim PTX: Finding immediate postdominators for '_Z15float2int_pow50f'...
GPGPU-Sim PTX: pre-decoding instructions for '_Z15float2int_pow50f'...
GPGPU-Sim PTX: reconvergence points for _Z15float2int_pow50f...
GPGPU-Sim PTX: ... end of reconvergence points for _Z15float2int_pow50f
GPGPU-Sim PTX: ... done pre-decoding instructions for '_Z15float2int_pow50f'.
GPGPU-Sim PTX: allocating constant region for "MView" from 0x200 to 0x230 (global memory space) 1
GPGPU-Sim PTX: allocating stack frame region for .local "__cuda___cuda_local_var_35463_9_non_const_pile_32240" from 0x0 to 0x50
GPGPU-Sim PTX: instruction assembly for function '_Z6renderPjP4Nodejjff'...   done.
GPGPU-Sim PTX: finding reconvergence points for '_Z6renderPjP4Nodejjff'...
GPGPU-Sim PTX: Finding dominators for '_Z6renderPjP4Nodejjff'...
GPGPU-Sim PTX: Finding immediate dominators for '_Z6renderPjP4Nodejjff'...
GPGPU-Sim PTX: Finding postdominators for '_Z6renderPjP4Nodejjff'...
GPGPU-Sim PTX: Finding immediate postdominators for '_Z6renderPjP4Nodejjff'...
GPGPU-Sim PTX: pre-decoding instructions for '_Z6renderPjP4Nodejjff'...
GPGPU-Sim PTX: reconvergence points for _Z6renderPjP4Nodejjff...
GPGPU-Sim PTX:  1 (potential) branch divergence @  PC=0xdb0 (_1.ptx:663) @%p1 bra $Lt_10_44034;
GPGPU-Sim PTX:    immediate post dominator      @  PC=0x2370 (_1.ptx:1495) exit;
GPGPU-Sim PTX:  2 (potential) branch divergence @  PC=0x1028 (_1.ptx:751) @%p2 bra $Lt_10_45570;
GPGPU-Sim PTX:    immediate post dominator      @  PC=0x11b8 (_1.ptx:815) mov.f32 %f108, 0f00000000;   // 0
GPGPU-Sim PTX:  3 (potential) branch divergence @  PC=0x1048 (_1.ptx:756) @!%p3 bra $Lt_10_46082;
GPGPU-Sim PTX:    immediate post dominator      @  PC=0x1090 (_1.ptx:769) mov.f32 %f87, %f82;
GPGPU-Sim PTX:  4 (potential) branch divergence @  PC=0x1058 (_1.ptx:758) bra.uni $Lt_10_45826;
GPGPU-Sim PTX:    immediate post dominator      @  PC=0x1090 (_1.ptx:769) mov.f32 %f87, %f82;
GPGPU-Sim PTX:  5 (potential) branch divergence @  PC=0x1098 (_1.ptx:770) bra.uni $Lt_10_45314;
GPGPU-Sim PTX:    immediate post dominator      @  PC=0x11b8 (_1.ptx:815) mov.f32 %f108, 0f00000000;   // 0
GPGPU-Sim PTX:  6 (potential) branch divergence @  PC=0x1140 (_1.ptx:793) @%p6 bra $Lt_10_46594;
GPGPU-Sim PTX:    immediate post dominator      @  PC=0x11b0 (_1.ptx:813) mov.f32 %f87, %f101;
GPGPU-Sim PTX:  7 (potential) branch divergence @  PC=0x1150 (_1.ptx:795) bra.uni $Lt_10_46850;
GPGPU-Sim PTX:    immediate post dominator      @  PC=0x11b0 (_1.ptx:813) mov.f32 %f87, %f101;
GPGPU-Sim PTX:  8 (potential) branch divergence @  PC=0x1170 (_1.ptx:800) @!%p7 bra $Lt_10_47106;
GPGPU-Sim PTX:    immediate post dominator      @  PC=0x11b0 (_1.ptx:813) mov.f32 %f87, %f101;
GPGPU-Sim PTX:  9 (potential) branch divergence @  PC=0x1180 (_1.ptx:802) bra.uni $Lt_10_46850;
GPGPU-Sim PTX:    immediate post dominator      @  PC=0x11b0 (_1.ptx:813) mov.f32 %f87, %f101;
GPGPU-Sim PTX: 10 (potential) branch divergence @  PC=0x11f8 (_1.ptx:823) @%p8 bra $Lt_10_47362;
GPGPU-Sim PTX:    immediate post dominator      @  PC=0x1210 (_1.ptx:829) add.s32 %r25, %r25, 1;
GPGPU-Sim PTX: 11 (potential) branch divergence @  PC=0x1230 (_1.ptx:833) @%p9 bra $Lt_10_45058;
GPGPU-Sim PTX:    immediate post dominator      @  PC=0x1238 (_1.ptx:834) mov.f32 %f109, 0f00000000;   // 0
GPGPU-Sim PTX: 12 (potential) branch divergence @  PC=0x1280 (_1.ptx:843) @%p10 bra $Lt_10_48130;
GPGPU-Sim PTX:    immediate post dominator      @  PC=0x2140 (_1.ptx:1416) add.s32 %r23, %r23, 1;
GPGPU-Sim PTX: 13 (potential) branch divergence @  PC=0x1330 (_1.ptx:868) @%p11 bra $Lt_10_48898;
GPGPU-Sim PTX:    immediate post dominator      @  PC=0x13b8 (_1.ptx:888) sub.f32 %f136, %f21, %f119;
GPGPU-Sim PTX: 14 (potential) branch divergence @  PC=0x1350 (_1.ptx:873) bra.uni $Lt_10_48642;
GPGPU-Sim PTX:    immediate post dominator      @  PC=0x13b8 (_1.ptx:888) sub.f32 %f136, %f21, %f119;
GPGPU-Sim PTX: 15 (potential) branch divergence @  PC=0x1430 (_1.ptx:903) @!%p12 bra $Lt_10_49410;
GPGPU-Sim PTX:    immediate post dominator      @  PC=0x1470 (_1.ptx:915) mov.f32 %f153, 0f3d4ccccd;   // 0.05
GPGPU-Sim PTX: 16 (potential) branch divergence @  PC=0x1450 (_1.ptx:908) bra.uni $Lt_10_49154;
GPGPU-Sim PTX:    immediate post dominator      @  PC=0x1470 (_1.ptx:915) mov.f32 %f153, 0f3d4ccccd;   // 0.05
GPGPU-Sim PTX: 17 (potential) branch divergence @  PC=0x1578 (_1.ptx:949) @!%p13 bra $Lt_10_58114;
GPGPU-Sim PTX:    immediate post dominator      @  PC=0x2080 (_1.ptx:1388) add.f32 %f399, %f126, %f126;
GPGPU-Sim PTX: 18 (potential) branch divergence @  PC=0x15c0 (_1.ptx:961) @%p14 bra $Lt_10_49922;
GPGPU-Sim PTX:    immediate post dominator      @  PC=0x17b0 (_1.ptx:1039) mov.f32 %f221, 0f00000000;   // 0
GPGPU-Sim PTX: 19 (potential) branch divergence @  PC=0x15e0 (_1.ptx:966) @!%p15 bra $Lt_10_50434;
GPGPU-Sim PTX:    immediate post dominator      @  PC=0x1638 (_1.ptx:982) mov.f32 %f190, %f183;
GPGPU-Sim PTX: 20 (potential) branch divergence @  PC=0x15f0 (_1.ptx:968) bra.uni $Lt_10_50178;
GPGPU-Sim PTX:    immediate post dominator      @  PC=0x1638 (_1.ptx:982) mov.f32 %f190, %f183;
GPGPU-Sim PTX: 21 (potential) branch divergence @  PC=0x1640 (_1.ptx:983) bra.uni $Lt_10_49666;
GPGPU-Sim PTX:    immediate post dominator      @  PC=0x17b0 (_1.ptx:1039) mov.f32 %f221, 0f00000000;   // 0
GPGPU-Sim PTX: 22 (potential) branch divergence @  PC=0x1738 (_1.ptx:1016) @%p18 bra $Lt_10_50946;
GPGPU-Sim PTX:    immediate post dominator      @  PC=0x17a8 (_1.ptx:1036) mov.f32 %f190, %f214;
GPGPU-Sim PTX: 23 (potential) branch divergence @  PC=0x1748 (_1.ptx:1018) bra.uni $Lt_10_51202;
GPGPU-Sim PTX:    immediate post dominator      @  PC=0x17a8 (_1.ptx:1036) mov.f32 %f190, %f214;
GPGPU-Sim PTX: 24 (potential) branch divergence @  PC=0x1768 (_1.ptx:1023) @!%p19 bra $Lt_10_51458;
GPGPU-Sim PTX:    immediate post dominator      @  PC=0x17a8 (_1.ptx:1036) mov.f32 %f190, %f214;
GPGPU-Sim PTX: 25 (potential) branch divergence @  PC=0x1778 (_1.ptx:1025) bra.uni $Lt_10_51202;
GPGPU-Sim PTX:    immediate post dominator      @  PC=0x17a8 (_1.ptx:1036) mov.f32 %f190, %f214;
GPGPU-Sim PTX: 26 (potential) branch divergence @  PC=0x17c0 (_1.ptx:1041) @!%p20 bra $Lt_10_58370;
GPGPU-Sim PTX:    immediate post dominator      @  PC=0x1828 (_1.ptx:1057) add.s32 %r50, %r50, 1;
GPGPU-Sim PTX: 27 (potential) branch divergence @  PC=0x1818 (_1.ptx:1052) @!%p21 bra $Lt_10_58370;
GPGPU-Sim PTX:    immediate post dominator      @  PC=0x1828 (_1.ptx:1057) add.s32 %r50, %r50, 1;
GPGPU-Sim PTX: 28 (potential) branch divergence @  PC=0x1848 (_1.ptx:1061) @%p22 bra $Lt_10_58882;
GPGPU-Sim PTX:    immediate post dominator      @  PC=0x1880 (_1.ptx:1071) @!%p23 bra $Lt_10_58114;
GPGPU-Sim PTX: 29 (potential) branch divergence @  PC=0x1860 (_1.ptx:1064) @%p23 bra $L_10_42498;
GPGPU-Sim PTX:    immediate post dominator      @  PC=0x1880 (_1.ptx:1071) @!%p23 bra $Lt_10_58114;
GPGPU-Sim PTX: 30 (potential) branch divergence @  PC=0x1868 (_1.ptx:1065) bra.uni $L_10_43266;
GPGPU-Sim PTX:    immediate post dominator      @  PC=0x1880 (_1.ptx:1071) @!%p23 bra $Lt_10_58114;
GPGPU-Sim PTX: 31 (potential) branch divergence @  PC=0x1880 (_1.ptx:1071) @!%p23 bra $Lt_10_58114;
GPGPU-Sim PTX:    immediate post dominator      @  PC=0x2080 (_1.ptx:1388) add.f32 %f399, %f126, %f126;
GPGPU-Sim PTX: 32 (potential) branch divergence @  PC=0x19c8 (_1.ptx:1115) @!%p24 bra $Lt_10_51714;
GPGPU-Sim PTX:    immediate post dominator      @  PC=0x2040 (_1.ptx:1375) mov.f32 %f394, 0f3f4ccccd;   // 0.8
GPGPU-Sim PTX: 33 (potential) branch divergence @  PC=0x19d8 (_1.ptx:1118) bra.uni $LDWendi___isnanf_192_1;
GPGPU-Sim PTX:    immediate post dominator      @  PC=0x2040 (_1.ptx:1375) mov.f32 %f394, 0f3f4ccccd;   // 0.8
GPGPU-Sim PTX: 34 (potential) branch divergence @  PC=0x19f8 (_1.ptx:1124) @!%p25 bra $Lt_10_7682;
GPGPU-Sim PTX:    immediate post dominator      @  PC=0x2040 (_1.ptx:1375) mov.f32 %f394, 0f3f4ccccd;   // 0.8
GPGPU-Sim PTX: 35 (potential) branch divergence @  PC=0x1a00 (_1.ptx:1125) bra.uni $Lt_10_7938;
GPGPU-Sim PTX:    immediate post dominator      @  PC=0x1a20 (_1.ptx:1133) mov.f32 %f272, 0f7f800000;   // ((1.0F)/(0.0F))
GPGPU-Sim PTX: 36 (potential) branch divergence @  PC=0x1a18 (_1.ptx:1130) bra.uni $LDWendi___isnanf_192_1;
GPGPU-Sim PTX:    immediate post dominator      @  PC=0x2040 (_1.ptx:1375) mov.f32 %f394, 0f3f4ccccd;   // 0.8
GPGPU-Sim PTX: 37 (potential) branch divergence @  PC=0x1a30 (_1.ptx:1135) @!%p26 bra $Lt_10_52226;
GPGPU-Sim PTX:    immediate post dominator      @  PC=0x2040 (_1.ptx:1375) mov.f32 %f394, 0f3f4ccccd;   // 0.8
GPGPU-Sim PTX: 38 (potential) branch divergence @  PC=0x1a40 (_1.ptx:1138) bra.uni $LDWendi___isnanf_192_1;
GPGPU-Sim PTX:    immediate post dominator      @  PC=0x2040 (_1.ptx:1375) mov.f32 %f394, 0f3f4ccccd;   // 0.8
GPGPU-Sim PTX: 39 (potential) branch divergence @  PC=0x1a58 (_1.ptx:1142) @!%p27 bra $Lt_10_52738;
GPGPU-Sim PTX:    immediate post dominator      @  PC=0x2040 (_1.ptx:1375) mov.f32 %f394, 0f3f4ccccd;   // 0.8
GPGPU-Sim PTX: 40 (potential) branch divergence @  PC=0x1ab8 (_1.ptx:1155) bra.uni $LDWendi___isnanf_192_1;
GPGPU-Sim PTX:    immediate post dominator      @  PC=0x2040 (_1.ptx:1375) mov.f32 %f394, 0f3f4ccccd;   // 0.8
GPGPU-Sim PTX: 41 (potential) branch divergence @  PC=0x1ad0 (_1.ptx:1159) @!%p29 bra $Lt_10_53250;
GPGPU-Sim PTX:    immediate post dominator      @  PC=0x2040 (_1.ptx:1375) mov.f32 %f394, 0f3f4ccccd;   // 0.8
GPGPU-Sim PTX: 42 (potential) branch divergence @  PC=0x1b20 (_1.ptx:1170) @!%p30 bra $Lt_10_53762;
GPGPU-Sim PTX:    immediate post dominator      @  PC=0x1b40 (_1.ptx:1177) mov.f32 %f268, %f284;
GPGPU-Sim PTX: 43 (potential) branch divergence @  PC=0x1b48 (_1.ptx:1178) bra.uni $LDWendi___isnanf_192_1;
GPGPU-Sim PTX:    immediate post dominator      @  PC=0x2040 (_1.ptx:1375) mov.f32 %f394, 0f3f4ccccd;   // 0.8
GPGPU-Sim PTX: 44 (potential) branch divergence @  PC=0x1b60 (_1.ptx:1183) @!%p31 bra $Lt_10_59394;
GPGPU-Sim PTX:    immediate post dominator      @  PC=0x2040 (_1.ptx:1375) mov.f32 %f394, 0f3f4ccccd;   // 0.8
GPGPU-Sim PTX: 45 (potential) branch divergence @  PC=0x1b88 (_1.ptx:1188) @!%p32 bra $Lt_10_59394;
GPGPU-Sim PTX:    immediate post dominator      @  PC=0x2040 (_1.ptx:1375) mov.f32 %f394, 0f3f4ccccd;   // 0.8
GPGPU-Sim PTX: 46 (potential) branch divergence @  PC=0x1ba0 (_1.ptx:1192) bra.uni $LDWendi___isnanf_192_1;
GPGPU-Sim PTX:    immediate post dominator      @  PC=0x2040 (_1.ptx:1375) mov.f32 %f394, 0f3f4ccccd;   // 0.8
GPGPU-Sim PTX: 47 (potential) branch divergence @  PC=0x1bd8 (_1.ptx:1202) @%p33 bra $Lt_10_54530;
GPGPU-Sim PTX:    immediate post dominator      @  PC=0x1c20 (_1.ptx:1216) sub.s32 %r64, %r64, 127;
GPGPU-Sim PTX: 48 (potential) branch divergence @  PC=0x1c10 (_1.ptx:1211) bra.uni $Lt_10_54274;
GPGPU-Sim PTX:    immediate post dominator      @  PC=0x1c20 (_1.ptx:1216) sub.s32 %r64, %r64, 127;
GPGPU-Sim PTX: 49 (potential) branch divergence @  PC=0x1c58 (_1.ptx:1224) @!%p34 bra $Lt_10_54786;
GPGPU-Sim PTX:    immediate post dominator      @  PC=0x1c78 (_1.ptx:1232) mov.f32 %f302, 0fbf800000;   // -1
GPGPU-Sim PTX: 50 (potential) branch divergence @  PC=0x1eb0 (_1.ptx:1312) @%p35 bra $Lt_10_55298;
GPGPU-Sim PTX:    immediate post dominator      @  PC=0x1ed8 (_1.ptx:1321) mov.f32 %f367, %f365;
GPGPU-Sim PTX: 51 (potential) branch divergence @  PC=0x1f98 (_1.ptx:1346) @!%p38 bra $Lt_10_55810;
GPGPU-Sim PTX:    immediate post dominator      @  PC=0x1fa8 (_1.ptx:1351) mov.f32 %f284, %f386;
GPGPU-Sim PTX: 52 (potential) branch divergence @  PC=0x2018 (_1.ptx:1365) @%p39 bra $Lt_10_56322;
GPGPU-Sim PTX:    immediate post dominator      @  PC=0x2038 (_1.ptx:1372) mov.f32 %f268, %f284;
GPGPU-Sim PTX: 53 (potential) branch divergence @  PC=0x2158 (_1.ptx:1419) @%p40 bra $L_10_42242;
GPGPU-Sim PTX:    immediate post dominator      @  PC=0x2170 (_1.ptx:1424) sub.s32 %r86, %r24, 1;
GPGPU-Sim PTX: 54 (potential) branch divergence @  PC=0x2168 (_1.ptx:1421) @%p41 bra $L_10_41474;
GPGPU-Sim PTX:    immediate post dominator      @  PC=0x2170 (_1.ptx:1424) sub.s32 %r86, %r24, 1;
GPGPU-Sim PTX: 55 (potential) branch divergence @  PC=0x2190 (_1.ptx:1428) @%p42 bra $Lt_10_56834;
GPGPU-Sim PTX:    immediate post dominator      @  PC=0x2288 (_1.ptx:1464) ld.global.u32 %r92, [%rd4+0];
GPGPU-Sim PTX: 56 (potential) branch divergence @  PC=0x2280 (_1.ptx:1461) @%p43 bra $Lt_10_57346;
GPGPU-Sim PTX:    immediate post dominator      @  PC=0x2288 (_1.ptx:1464) ld.global.u32 %r92, [%rd4+0];
GPGPU-Sim PTX: ... end of reconvergence points for _Z6renderPjP4Nodejjff
GPGPU-Sim PTX: ... done pre-decoding instructions for '_Z6renderPjP4Nodejjff'.
GPGPU-Sim PTX: instruction assembly for function '_ZN4dim3C1Ejjj'...   done.
GPGPU-Sim PTX: finding reconvergence points for '_ZN4dim3C1Ejjj'...
GPGPU-Sim PTX: Finding dominators for '_ZN4dim3C1Ejjj'...
GPGPU-Sim PTX: Finding immediate dominators for '_ZN4dim3C1Ejjj'...
GPGPU-Sim PTX: Finding postdominators for '_ZN4dim3C1Ejjj'...
GPGPU-Sim PTX: Finding immediate postdominators for '_ZN4dim3C1Ejjj'...
GPGPU-Sim PTX: pre-decoding instructions for '_ZN4dim3C1Ejjj'...
GPGPU-Sim PTX: reconvergence points for _ZN4dim3C1Ejjj...
GPGPU-Sim PTX: ... end of reconvergence points for _ZN4dim3C1Ejjj
GPGPU-Sim PTX: ... done pre-decoding instructions for '_ZN4dim3C1Ejjj'.
GPGPU-Sim PTX: finished parsing EMBEDDED .ptx file _1.ptx
Adding _cuobjdump_1.ptx with cubin handle 1
GPGPU-Sim PTX: extracting embedded .ptx to temporary file "_ptx_aCLIiU"
Running: cat _ptx_aCLIiU | sed 's/.version 1.5/.version 1.4/' | sed 's/, texmode_independent//' | sed 's/\(\.extern \.const\[1\] .b8 \w\+\)\[\]/\1\[1\]/' | sed 's/const\[.\]/const\[0\]/g' > _ptx2_4ZDLPe
GPGPU-Sim PTX: generating ptxinfo using "$CUDA_INSTALL_PATH/bin/ptxas --gpu-name=sm_20 -v _ptx2_4ZDLPe --output-file  /dev/null 2> _ptx_aCLIiUinfo"
GPGPU-Sim PTX: Kernel '_Z6renderPjP4Nodejjff' : regs=45, lmem=4, smem=0, cmem=180
GPGPU-Sim PTX: removing ptxinfo using "rm -f _ptx_aCLIiU _ptx2_4ZDLPe _ptx_aCLIiUinfo"
GPGPU-Sim PTX: loading globals with explicit initializers... 
GPGPU-Sim PTX: finished loading globals (0 bytes total).
GPGPU-Sim PTX: loading constants with explicit initializers...  done.
GPGPU-Sim PTX: __cudaRegisterVar: hostVar = 0x62fda0; deviceAddress = MView; deviceName = MView
GPGPU-Sim PTX: __cudaRegisterVar: Registering const memory space of 48 bytes
GPGPU-Sim PTX registering constant MView (48 bytes) to name mapping
GPGPU-Sim PTX: __cudaRegisterVar: hostVar = 0x62fde0; deviceAddress = cnode; deviceName = cnode
GPGPU-Sim PTX: __cudaRegisterVar: Registering const memory space of 160 bytes
GPGPU-Sim PTX registering constant cnode (160 bytes) to name mapping
GPGPU-Sim PTX: cudaMemcpyToSymbol: symbol = 0x62fde0
GPGPU-Sim PTX: starting gpgpu_ptx_sim_memcpy_symbol with hostVar 0x0x62fde0
GPGPU-Sim PTX: gpgpu_ptx_sim_memcpy_symbol: Found PTX symbol w/ hostVar=0x62fde0
GPGPU-Sim PTX: gpgpu_ptx_sim_memcpy_symbol: copying const memory 160 bytes  to  symbol cnode+0 @0x100 ...
GPGPU-Sim PTX: cudaMemcpyToSymbol: symbol = 0x62fda0
GPGPU-Sim PTX: starting gpgpu_ptx_sim_memcpy_symbol with hostVar 0x0x62fda0
GPGPU-Sim PTX: gpgpu_ptx_sim_memcpy_symbol: Found PTX symbol w/ hostVar=0x62fda0
GPGPU-Sim PTX: gpgpu_ptx_sim_memcpy_symbol: copying const memory 48 bytes  to  symbol MView+0 @0x200 ...

GPGPU-Sim PTX: cudaLaunch for 0x0x40ce13 (mode=performance simulation) on stream 0
GPGPU-Sim PTX: pushing kernel '_Z6renderPjP4Nodejjff' to stream 0, gridDim= (16,32,1) blockDim = (16,8,1) 
kernel '_Z6renderPjP4Nodejjff' transfer to GPU hardware scheduler
GPGPU-Sim uArch: Shader 1 bind to kernel 1 '_Z6renderPjP4Nodejjff'
GPGPU-Sim uArch: CTA/core = 5, limited by: regs
GPGPU-Sim uArch: core:  1, cta: 0 initialized @(1,0)
GPGPU-Sim uArch: Shader 2 bind to kernel 1 '_Z6renderPjP4Nodejjff'
GPGPU-Sim uArch: core:  2, cta: 0 initialized @(1,0)
GPGPU-Sim uArch: Shader 3 bind to kernel 1 '_Z6renderPjP4Nodejjff'
GPGPU-Sim uArch: core:  3, cta: 0 initialized @(1,0)
GPGPU-Sim uArch: Shader 4 bind to kernel 1 '_Z6renderPjP4Nodejjff'
GPGPU-Sim uArch: core:  4, cta: 0 initialized @(1,0)
GPGPU-Sim uArch: Shader 5 bind to kernel 1 '_Z6renderPjP4Nodejjff'
GPGPU-Sim uArch: core:  5, cta: 0 initialized @(1,0)
GPGPU-Sim uArch: Shader 6 bind to kernel 1 '_Z6renderPjP4Nodejjff'
GPGPU-Sim uArch: core:  6, cta: 0 initialized @(1,0)
GPGPU-Sim uArch: Shader 7 bind to kernel 1 '_Z6renderPjP4Nodejjff'
GPGPU-Sim uArch: core:  7, cta: 0 initialized @(1,0)
GPGPU-Sim uArch: Shader 8 bind to kernel 1 '_Z6renderPjP4Nodejjff'
GPGPU-Sim uArch: core:  8, cta: 0 initialized @(1,0)
GPGPU-Sim uArch: Shader 9 bind to kernel 1 '_Z6renderPjP4Nodejjff'
GPGPU-Sim uArch: core:  9, cta: 0 initialized @(1,0)
GPGPU-Sim uArch: Shader 10 bind to kernel 1 '_Z6renderPjP4Nodejjff'
GPGPU-Sim uArch: core: 10, cta: 0 initialized @(1,0)
GPGPU-Sim uArch: Shader 11 bind to kernel 1 '_Z6renderPjP4Nodejjff'
GPGPU-Sim uArch: core: 11, cta: 0 initialized @(1,0)
GPGPU-Sim uArch: Shader 12 bind to kernel 1 '_Z6renderPjP4Nodejjff'
GPGPU-Sim uArch: core: 12, cta: 0 initialized @(1,0)
GPGPU-Sim uArch: Shader 13 bind to kernel 1 '_Z6renderPjP4Nodejjff'
GPGPU-Sim uArch: core: 13, cta: 0 initialized @(1,0)
GPGPU-Sim uArch: Shader 14 bind to kernel 1 '_Z6renderPjP4Nodejjff'
GPGPU-Sim uArch: core: 14, cta: 0 initialized @(1,0)
GPGPU-Sim uArch: Shader 0 bind to kernel 1 '_Z6renderPjP4Nodejjff'
GPGPU-Sim uArch: core:  0, cta: 0 initialized @(1,0)
GPGPU-Sim uArch: core:  1, cta: 1 initialized @(2,0)
GPGPU-Sim uArch: core:  2, cta: 1 initialized @(2,0)
GPGPU-Sim uArch: core:  3, cta: 1 initialized @(2,0)
GPGPU-Sim uArch: core:  4, cta: 1 initialized @(2,0)
GPGPU-Sim uArch: core:  5, cta: 1 initialized @(2,0)
GPGPU-Sim uArch: core:  6, cta: 1 initialized @(2,0)
GPGPU-Sim uArch: core:  7, cta: 1 initialized @(2,0)
GPGPU-Sim uArch: core:  8, cta: 1 initialized @(2,0)
GPGPU-Sim uArch: core:  9, cta: 1 initialized @(2,0)
GPGPU-Sim uArch: core: 10, cta: 1 initialized @(2,0)
GPGPU-Sim uArch: core: 11, cta: 1 initialized @(2,0)
GPGPU-Sim uArch: core: 12, cta: 1 initialized @(2,0)
GPGPU-Sim uArch: core: 13, cta: 1 initialized @(2,0)
GPGPU-Sim uArch: core: 14, cta: 1 initialized @(2,0)
GPGPU-Sim uArch: core:  0, cta: 1 initialized @(2,0)
GPGPU-Sim uArch: core:  1, cta: 2 initialized @(3,0)
GPGPU-Sim uArch: core:  2, cta: 2 initialized @(3,0)
GPGPU-Sim uArch: core:  3, cta: 2 initialized @(3,0)
GPGPU-Sim uArch: core:  4, cta: 2 initialized @(3,0)
GPGPU-Sim uArch: core:  5, cta: 2 initialized @(3,0)
GPGPU-Sim uArch: core:  6, cta: 2 initialized @(3,0)
GPGPU-Sim uArch: core:  7, cta: 2 initialized @(3,0)
GPGPU-Sim uArch: core:  8, cta: 2 initialized @(3,0)
GPGPU-Sim uArch: core:  9, cta: 2 initialized @(3,0)
GPGPU-Sim uArch: core: 10, cta: 2 initialized @(3,0)
GPGPU-Sim uArch: core: 11, cta: 2 initialized @(3,0)
GPGPU-Sim uArch: core: 12, cta: 2 initialized @(3,0)
GPGPU-Sim uArch: core: 13, cta: 2 initialized @(3,0)
GPGPU-Sim uArch: core: 14, cta: 2 initialized @(3,0)
GPGPU-Sim uArch: core:  0, cta: 2 initialized @(3,0)
GPGPU-Sim uArch: core:  1, cta: 3 initialized @(4,0)
GPGPU-Sim uArch: core:  2, cta: 3 initialized @(4,0)
GPGPU-Sim uArch: core:  3, cta: 3 initialized @(4,0)
GPGPU-Sim uArch: core:  4, cta: 3 initialized @(4,0)
GPGPU-Sim uArch: core:  5, cta: 3 initialized @(4,0)
GPGPU-Sim uArch: core:  6, cta: 3 initialized @(4,0)
GPGPU-Sim uArch: core:  7, cta: 3 initialized @(4,0)
GPGPU-Sim uArch: core:  8, cta: 3 initialized @(4,0)
GPGPU-Sim uArch: core:  9, cta: 3 initialized @(4,0)
GPGPU-Sim uArch: core: 10, cta: 3 initialized @(4,0)
GPGPU-Sim uArch: core: 11, cta: 3 initialized @(4,0)
GPGPU-Sim uArch: core: 12, cta: 3 initialized @(4,0)
GPGPU-Sim uArch: core: 13, cta: 3 initialized @(4,0)
GPGPU-Sim uArch: core: 14, cta: 3 initialized @(4,0)
GPGPU-Sim uArch: core:  0, cta: 3 initialized @(4,0)
GPGPU-Sim uArch: core:  1, cta: 4 initialized @(5,0)
GPGPU-Sim uArch: core:  2, cta: 4 initialized @(5,0)
GPGPU-Sim uArch: core:  3, cta: 4 initialized @(5,0)
GPGPU-Sim uArch: core:  4, cta: 4 initialized @(5,0)
GPGPU-Sim uArch: core:  5, cta: 4 initialized @(5,0)
GPGPU-Sim uArch: core:  6, cta: 4 initialized @(5,0)
GPGPU-Sim uArch: core:  7, cta: 4 initialized @(5,0)
GPGPU-Sim uArch: core:  8, cta: 4 initialized @(5,0)
GPGPU-Sim uArch: core:  9, cta: 4 initialized @(5,0)
GPGPU-Sim uArch: core: 10, cta: 4 initialized @(5,0)
GPGPU-Sim uArch: core: 11, cta: 4 initialized @(5,0)
GPGPU-Sim uArch: core: 12, cta: 4 initialized @(5,0)
GPGPU-Sim uArch: core: 13, cta: 4 initialized @(5,0)
GPGPU-Sim uArch: core: 14, cta: 4 initialized @(5,0)
GPGPU-Sim uArch: core:  0, cta: 4 initialized @(5,0)
GPGPU-Sim uArch: cycles simulated: 500  inst.: 35328 (ipc=70.7) sim_rate=35328 (inst/sec) elapsed = 0:0:00:01 / Sun Feb 28 21:36:41 2016
GPGPU-Sim uArch: cycles simulated: 1500  inst.: 69728 (ipc=46.5) sim_rate=34864 (inst/sec) elapsed = 0:0:00:02 / Sun Feb 28 21:36:42 2016
GPGPU-Sim PTX: 100000 instructions simulated : ctaid=(9,0,0) tid=(15,5,0)
GPGPU-Sim uArch: cycles simulated: 4000  inst.: 126848 (ipc=31.7) sim_rate=42282 (inst/sec) elapsed = 0:0:00:03 / Sun Feb 28 21:36:43 2016
GPGPU-Sim PTX: 200000 instructions simulated : ctaid=(10,1,0) tid=(15,1,0)
GPGPU-Sim uArch: cycles simulated: 6500  inst.: 232512 (ipc=35.8) sim_rate=58128 (inst/sec) elapsed = 0:0:00:04 / Sun Feb 28 21:36:44 2016
GPGPU-Sim PTX: 300000 instructions simulated : ctaid=(10,1,0) tid=(15,1,0)
GPGPU-Sim PTX: 400000 instructions simulated : ctaid=(2,0,0) tid=(15,3,0)
GPGPU-Sim PTX: 500000 instructions simulated : ctaid=(2,0,0) tid=(15,7,0)
GPGPU-Sim uArch: cycles simulated: 9000  inst.: 541952 (ipc=60.2) sim_rate=108390 (inst/sec) elapsed = 0:0:00:05 / Sun Feb 28 21:36:45 2016
GPGPU-Sim PTX: 600000 instructions simulated : ctaid=(12,0,0) tid=(15,3,0)
GPGPU-Sim PTX: 700000 instructions simulated : ctaid=(5,3,0) tid=(15,3,0)
GPGPU-Sim PTX: 800000 instructions simulated : ctaid=(10,4,0) tid=(15,5,0)
GPGPU-Sim PTX: 900000 instructions simulated : ctaid=(5,2,0) tid=(15,7,0)
GPGPU-Sim uArch: cycles simulated: 10500  inst.: 934944 (ipc=89.0) sim_rate=155824 (inst/sec) elapsed = 0:0:00:06 / Sun Feb 28 21:36:46 2016
GPGPU-Sim PTX: 1000000 instructions simulated : ctaid=(11,3,0) tid=(15,7,0)
GPGPU-Sim PTX: 1100000 instructions simulated : ctaid=(1,4,0) tid=(15,7,0)
GPGPU-Sim PTX: 1200000 instructions simulated : ctaid=(1,2,0) tid=(15,5,0)
GPGPU-Sim PTX: 1300000 instructions simulated : ctaid=(9,2,0) tid=(15,7,0)
GPGPU-Sim PTX: 1400000 instructions simulated : ctaid=(2,2,0) tid=(15,7,0)
GPGPU-Sim PTX: 1500000 instructions simulated : ctaid=(8,0,0) tid=(15,7,0)
GPGPU-Sim PTX: 1600000 instructions simulated : ctaid=(5,1,0) tid=(15,5,0)
GPGPU-Sim PTX: 1700000 instructions simulated : ctaid=(1,0,0) tid=(15,3,0)
GPGPU-Sim PTX: 1800000 instructions simulated : ctaid=(1,1,0) tid=(15,1,0)
GPGPU-Sim uArch: cycles simulated: 12000  inst.: 1847584 (ipc=154.0) sim_rate=263940 (inst/sec) elapsed = 0:0:00:07 / Sun Feb 28 21:36:47 2016
GPGPU-Sim PTX: 1900000 instructions simulated : ctaid=(6,1,0) tid=(15,7,0)
GPGPU-Sim PTX: 2000000 instructions simulated : ctaid=(4,3,0) tid=(15,5,0)
GPGPU-Sim PTX: 2100000 instructions simulated : ctaid=(12,0,0) tid=(15,1,0)
GPGPU-Sim PTX: 2200000 instructions simulated : ctaid=(6,3,0) tid=(15,1,0)
GPGPU-Sim uArch: cycles simulated: 12500  inst.: 2223584 (ipc=177.9) sim_rate=277948 (inst/sec) elapsed = 0:0:00:08 / Sun Feb 28 21:36:48 2016
GPGPU-Sim PTX: 2300000 instructions simulated : ctaid=(0,2,0) tid=(15,5,0)
GPGPU-Sim PTX: 2400000 instructions simulated : ctaid=(10,3,0) tid=(15,5,0)
GPGPU-Sim PTX: 2500000 instructions simulated : ctaid=(14,3,0) tid=(15,3,0)
GPGPU-Sim PTX: 2600000 instructions simulated : ctaid=(0,2,0) tid=(15,7,0)
GPGPU-Sim PTX: 2700000 instructions simulated : ctaid=(4,4,0) tid=(15,7,0)
GPGPU-Sim PTX: 2800000 instructions simulated : ctaid=(7,2,0) tid=(15,3,0)
GPGPU-Sim PTX: 2900000 instructions simulated : ctaid=(15,3,0) tid=(15,7,0)
GPGPU-Sim PTX: 3000000 instructions simulated : ctaid=(2,4,0) tid=(15,7,0)
GPGPU-Sim uArch: cycles simulated: 13500  inst.: 2959104 (ipc=219.2) sim_rate=328789 (inst/sec) elapsed = 0:0:00:09 / Sun Feb 28 21:36:49 2016
GPGPU-Sim PTX: 3100000 instructions simulated : ctaid=(1,3,0) tid=(15,7,0)
GPGPU-Sim PTX: 3200000 instructions simulated : ctaid=(2,3,0) tid=(15,7,0)
GPGPU-Sim PTX: 3300000 instructions simulated : ctaid=(15,0,0) tid=(15,3,0)
GPGPU-Sim PTX: 3400000 instructions simulated : ctaid=(6,4,0) tid=(15,7,0)
GPGPU-Sim PTX: 3500000 instructions simulated : ctaid=(5,1,0) tid=(15,7,0)
GPGPU-Sim uArch: cycles simulated: 14500  inst.: 3495424 (ipc=241.1) sim_rate=349542 (inst/sec) elapsed = 0:0:00:10 / Sun Feb 28 21:36:50 2016
GPGPU-Sim PTX: 3600000 instructions simulated : ctaid=(2,2,0) tid=(15,5,0)
GPGPU-Sim PTX: 3700000 instructions simulated : ctaid=(13,2,0) tid=(15,3,0)
GPGPU-Sim PTX: 3800000 instructions simulated : ctaid=(1,1,0) tid=(15,1,0)
GPGPU-Sim PTX: 3900000 instructions simulated : ctaid=(10,3,0) tid=(15,7,0)
GPGPU-Sim PTX: 4000000 instructions simulated : ctaid=(2,4,0) tid=(15,5,0)
GPGPU-Sim PTX: 4100000 instructions simulated : ctaid=(0,4,0) tid=(15,1,0)
GPGPU-Sim PTX: 4200000 instructions simulated : ctaid=(12,0,0) tid=(15,7,0)
GPGPU-Sim PTX: 4300000 instructions simulated : ctaid=(8,4,0) tid=(15,5,0)
GPGPU-Sim uArch: cycles simulated: 16000  inst.: 4200352 (ipc=262.5) sim_rate=381850 (inst/sec) elapsed = 0:0:00:11 / Sun Feb 28 21:36:51 2016
GPGPU-Sim PTX: 4400000 instructions simulated : ctaid=(6,4,0) tid=(15,5,0)
GPGPU-Sim PTX: 4500000 instructions simulated : ctaid=(7,4,0) tid=(15,1,0)
GPGPU-Sim PTX: 4600000 instructions simulated : ctaid=(7,2,0) tid=(4,6,0)
GPGPU-Sim PTX: 4700000 instructions simulated : ctaid=(6,2,0) tid=(5,1,0)
GPGPU-Sim PTX: 4800000 instructions simulated : ctaid=(2,0,0) tid=(3,2,0)
GPGPU-Sim PTX: 4900000 instructions simulated : ctaid=(5,2,0) tid=(15,0,0)
GPGPU-Sim PTX: 5000000 instructions simulated : ctaid=(0,1,0) tid=(15,4,0)
GPGPU-Sim uArch: cycles simulated: 17000  inst.: 4872304 (ipc=286.6) sim_rate=406025 (inst/sec) elapsed = 0:0:00:12 / Sun Feb 28 21:36:52 2016
GPGPU-Sim PTX: 5100000 instructions simulated : ctaid=(14,2,0) tid=(15,6,0)
GPGPU-Sim PTX: 5200000 instructions simulated : ctaid=(3,1,0) tid=(15,2,0)
GPGPU-Sim PTX: 5300000 instructions simulated : ctaid=(2,0,0) tid=(15,0,0)
GPGPU-Sim PTX: 5400000 instructions simulated : ctaid=(2,0,0) tid=(12,2,0)
GPGPU-Sim PTX: 5500000 instructions simulated : ctaid=(9,3,0) tid=(13,0,0)
GPGPU-Sim PTX: 5600000 instructions simulated : ctaid=(3,0,0) tid=(1,4,0)
GPGPU-Sim PTX: 5700000 instructions simulated : ctaid=(5,0,0) tid=(7,1,0)
GPGPU-Sim PTX: 5800000 instructions simulated : ctaid=(5,4,0) tid=(4,5,0)
GPGPU-Sim uArch: cycles simulated: 18000  inst.: 5632984 (ipc=312.9) sim_rate=433306 (inst/sec) elapsed = 0:0:00:13 / Sun Feb 28 21:36:53 2016
GPGPU-Sim PTX: 5900000 instructions simulated : ctaid=(6,4,0) tid=(7,4,0)
GPGPU-Sim PTX: 6000000 instructions simulated : ctaid=(8,3,0) tid=(12,3,0)
GPGPU-Sim PTX: 6100000 instructions simulated : ctaid=(4,0,0) tid=(11,3,0)
GPGPU-Sim PTX: 6200000 instructions simulated : ctaid=(3,4,0) tid=(11,7,0)
GPGPU-Sim PTX: 6300000 instructions simulated : ctaid=(8,1,0) tid=(11,5,0)
GPGPU-Sim uArch: cycles simulated: 19500  inst.: 6174692 (ipc=316.7) sim_rate=441049 (inst/sec) elapsed = 0:0:00:14 / Sun Feb 28 21:36:54 2016
GPGPU-Sim PTX: 6400000 instructions simulated : ctaid=(5,1,0) tid=(11,1,0)
GPGPU-Sim PTX: 6500000 instructions simulated : ctaid=(8,0,0) tid=(15,4,0)
GPGPU-Sim PTX: 6600000 instructions simulated : ctaid=(6,1,0) tid=(11,1,0)
GPGPU-Sim PTX: 6700000 instructions simulated : ctaid=(4,3,0) tid=(11,1,0)
GPGPU-Sim PTX: 6800000 instructions simulated : ctaid=(11,2,0) tid=(11,3,0)
GPGPU-Sim PTX: 6900000 instructions simulated : ctaid=(10,1,0) tid=(11,7,0)
GPGPU-Sim uArch: cycles simulated: 21000  inst.: 6787684 (ipc=323.2) sim_rate=452512 (inst/sec) elapsed = 0:0:00:15 / Sun Feb 28 21:36:55 2016
GPGPU-Sim PTX: 7000000 instructions simulated : ctaid=(4,3,0) tid=(11,3,0)
GPGPU-Sim PTX: 7100000 instructions simulated : ctaid=(5,2,0) tid=(11,3,0)
GPGPU-Sim PTX: 7200000 instructions simulated : ctaid=(4,1,0) tid=(11,3,0)
GPGPU-Sim PTX: 7300000 instructions simulated : ctaid=(4,2,0) tid=(11,5,0)
GPGPU-Sim PTX: 7400000 instructions simulated : ctaid=(11,1,0) tid=(11,5,0)
GPGPU-Sim PTX: 7500000 instructions simulated : ctaid=(9,1,0) tid=(11,7,0)
GPGPU-Sim uArch: cycles simulated: 22500  inst.: 7376804 (ipc=327.9) sim_rate=461050 (inst/sec) elapsed = 0:0:00:16 / Sun Feb 28 21:36:56 2016
GPGPU-Sim PTX: 7600000 instructions simulated : ctaid=(13,1,0) tid=(11,1,0)
GPGPU-Sim PTX: 7700000 instructions simulated : ctaid=(12,0,0) tid=(11,3,0)
GPGPU-Sim PTX: 7800000 instructions simulated : ctaid=(15,1,0) tid=(11,5,0)
GPGPU-Sim PTX: 7900000 instructions simulated : ctaid=(15,1,0) tid=(11,7,0)
GPGPU-Sim uArch: cycles simulated: 23500  inst.: 7769188 (ipc=330.6) sim_rate=457011 (inst/sec) elapsed = 0:0:00:17 / Sun Feb 28 21:36:57 2016
GPGPU-Sim PTX: 8000000 instructions simulated : ctaid=(10,3,0) tid=(11,1,0)
GPGPU-Sim PTX: 8100000 instructions simulated : ctaid=(0,1,0) tid=(11,7,0)
GPGPU-Sim PTX: 8200000 instructions simulated : ctaid=(8,2,0) tid=(11,3,0)
GPGPU-Sim PTX: 8300000 instructions simulated : ctaid=(9,4,0) tid=(11,3,0)
GPGPU-Sim PTX: 8400000 instructions simulated : ctaid=(0,1,0) tid=(11,5,0)
GPGPU-Sim PTX: 8500000 instructions simulated : ctaid=(1,2,0) tid=(11,1,0)
GPGPU-Sim PTX: 8600000 instructions simulated : ctaid=(6,3,0) tid=(15,0,0)
GPGPU-Sim PTX: 8700000 instructions simulated : ctaid=(3,4,0) tid=(8,0,0)
GPGPU-Sim uArch: cycles simulated: 25000  inst.: 8494668 (ipc=339.8) sim_rate=471926 (inst/sec) elapsed = 0:0:00:18 / Sun Feb 28 21:36:58 2016
GPGPU-Sim PTX: 8800000 instructions simulated : ctaid=(6,1,0) tid=(1,2,0)
GPGPU-Sim PTX: 8900000 instructions simulated : ctaid=(15,2,0) tid=(11,3,0)
GPGPU-Sim PTX: 9000000 instructions simulated : ctaid=(4,1,0) tid=(3,5,0)
GPGPU-Sim PTX: 9100000 instructions simulated : ctaid=(10,3,0) tid=(13,4,0)
GPGPU-Sim PTX: 9200000 instructions simulated : ctaid=(1,4,0) tid=(3,2,0)
GPGPU-Sim PTX: 9300000 instructions simulated : ctaid=(14,1,0) tid=(3,3,0)
GPGPU-Sim PTX: 9400000 instructions simulated : ctaid=(1,3,0) tid=(7,2,0)
GPGPU-Sim PTX: 9500000 instructions simulated : ctaid=(8,0,0) tid=(6,3,0)
GPGPU-Sim uArch: cycles simulated: 26000  inst.: 9296049 (ipc=357.5) sim_rate=489265 (inst/sec) elapsed = 0:0:00:19 / Sun Feb 28 21:36:59 2016
GPGPU-Sim PTX: 9600000 instructions simulated : ctaid=(8,3,0) tid=(15,6,0)
GPGPU-Sim PTX: 9700000 instructions simulated : ctaid=(11,2,0) tid=(12,6,0)
GPGPU-Sim PTX: 9800000 instructions simulated : ctaid=(9,4,0) tid=(0,7,0)
GPGPU-Sim PTX: 9900000 instructions simulated : ctaid=(15,2,0) tid=(7,2,0)
GPGPU-Sim PTX: 10000000 instructions simulated : ctaid=(1,4,0) tid=(12,0,0)
GPGPU-Sim PTX: 10100000 instructions simulated : ctaid=(11,3,0) tid=(1,5,0)
GPGPU-Sim uArch: cycles simulated: 27500  inst.: 9919557 (ipc=360.7) sim_rate=495977 (inst/sec) elapsed = 0:0:00:20 / Sun Feb 28 21:37:00 2016
GPGPU-Sim PTX: 10200000 instructions simulated : ctaid=(4,2,0) tid=(2,3,0)
GPGPU-Sim PTX: 10300000 instructions simulated : ctaid=(2,1,0) tid=(11,5,0)
GPGPU-Sim uArch: Shader 8 finished CTA #2 (28167,0), 4 CTAs running
GPGPU-Sim uArch: core:  8, cta: 2 initialized @(28168,0)
GPGPU-Sim uArch: Shader 0 finished CTA #0 (28193,0), 4 CTAs running
GPGPU-Sim uArch: core:  0, cta: 0 initialized @(28194,0)
GPGPU-Sim uArch: Shader 6 finished CTA #2 (28197,0), 4 CTAs running
GPGPU-Sim uArch: core:  6, cta: 2 initialized @(28198,0)
GPGPU-Sim uArch: Shader 0 finished CTA #1 (28217,0), 4 CTAs running
GPGPU-Sim uArch: core:  0, cta: 1 initialized @(28218,0)
GPGPU-Sim uArch: Shader 2 finished CTA #0 (28225,0), 4 CTAs running
GPGPU-Sim uArch: core:  2, cta: 0 initialized @(28226,0)
GPGPU-Sim uArch: Shader 6 finished CTA #3 (28238,0), 4 CTAs running
GPGPU-Sim uArch: core:  6, cta: 3 initialized @(28239,0)
GPGPU-Sim PTX: 10400000 instructions simulated : ctaid=(11,0,0) tid=(5,2,0)
GPGPU-Sim uArch: Shader 0 finished CTA #2 (28275,0), 4 CTAs running
GPGPU-Sim uArch: core:  0, cta: 2 initialized @(28276,0)
GPGPU-Sim uArch: Shader 0 finished CTA #3 (28288,0), 4 CTAs running
GPGPU-Sim uArch: core:  0, cta: 3 initialized @(28289,0)
GPGPU-Sim uArch: Shader 1 finished CTA #1 (28290,0), 4 CTAs running
GPGPU-Sim uArch: core:  1, cta: 1 initialized @(28291,0)
GPGPU-Sim uArch: Shader 14 finished CTA #0 (28293,0), 4 CTAs running
GPGPU-Sim uArch: core: 14, cta: 0 initialized @(28294,0)
GPGPU-Sim uArch: Shader 8 finished CTA #4 (28298,0), 4 CTAs running
GPGPU-Sim uArch: core:  8, cta: 4 initialized @(28299,0)
GPGPU-Sim uArch: Shader 8 finished CTA #3 (28310,0), 4 CTAs running
GPGPU-Sim uArch: core:  8, cta: 3 initialized @(28311,0)
GPGPU-Sim uArch: Shader 2 finished CTA #1 (28344,0), 4 CTAs running
GPGPU-Sim uArch: core:  2, cta: 1 initialized @(28345,0)
GPGPU-Sim uArch: Shader 3 finished CTA #0 (28348,0), 4 CTAs running
GPGPU-Sim uArch: core:  3, cta: 0 initialized @(28349,0)
GPGPU-Sim uArch: Shader 9 finished CTA #3 (28352,0), 4 CTAs running
GPGPU-Sim uArch: core:  9, cta: 3 initialized @(28353,0)
GPGPU-Sim uArch: Shader 4 finished CTA #1 (28356,0), 4 CTAs running
GPGPU-Sim uArch: core:  4, cta: 1 initialized @(28357,0)
GPGPU-Sim uArch: Shader 6 finished CTA #4 (28357,0), 4 CTAs running
GPGPU-Sim uArch: core:  6, cta: 4 initialized @(28358,0)
GPGPU-Sim uArch: Shader 1 finished CTA #0 (28366,0), 4 CTAs running
GPGPU-Sim uArch: Shader 9 finished CTA #4 (28366,0), 4 CTAs running
GPGPU-Sim uArch: core:  9, cta: 4 initialized @(28367,0)
GPGPU-Sim uArch: core:  1, cta: 0 initialized @(28367,0)
GPGPU-Sim uArch: Shader 3 finished CTA #1 (28374,0), 4 CTAs running
GPGPU-Sim uArch: Shader 4 finished CTA #2 (28374,0), 4 CTAs running
GPGPU-Sim uArch: core:  3, cta: 1 initialized @(28375,0)
GPGPU-Sim uArch: core:  4, cta: 2 initialized @(28375,0)
GPGPU-Sim uArch: Shader 2 finished CTA #2 (28376,0), 4 CTAs running
GPGPU-Sim uArch: core:  2, cta: 2 initialized @(28377,0)
GPGPU-Sim uArch: Shader 1 finished CTA #2 (28388,0), 4 CTAs running
GPGPU-Sim uArch: core:  1, cta: 2 initialized @(28389,0)
GPGPU-Sim uArch: Shader 1 finished CTA #4 (28398,0), 4 CTAs running
GPGPU-Sim uArch: Shader 4 finished CTA #3 (28398,0), 4 CTAs running
GPGPU-Sim uArch: core:  4, cta: 3 initialized @(28399,0)
GPGPU-Sim uArch: core:  1, cta: 4 initialized @(28399,0)
GPGPU-Sim uArch: Shader 1 finished CTA #3 (28408,0), 4 CTAs running
GPGPU-Sim uArch: core:  1, cta: 3 initialized @(28409,0)
GPGPU-Sim uArch: Shader 2 finished CTA #3 (28423,0), 4 CTAs running
GPGPU-Sim uArch: core:  2, cta: 3 initialized @(28424,0)
GPGPU-Sim uArch: Shader 4 finished CTA #4 (28424,0), 4 CTAs running
GPGPU-Sim uArch: core:  4, cta: 4 initialized @(28425,0)
GPGPU-Sim uArch: Shader 7 finished CTA #3 (28427,0), 4 CTAs running
GPGPU-Sim uArch: core:  7, cta: 3 initialized @(28428,0)
GPGPU-Sim uArch: Shader 2 finished CTA #4 (28437,0), 4 CTAs running
GPGPU-Sim uArch: core:  2, cta: 4 initialized @(28438,0)
GPGPU-Sim uArch: Shader 0 finished CTA #4 (28440,0), 4 CTAs running
GPGPU-Sim uArch: Shader 5 finished CTA #2 (28440,0), 4 CTAs running
GPGPU-Sim uArch: core:  5, cta: 2 initialized @(28441,0)
GPGPU-Sim uArch: core:  0, cta: 4 initialized @(28441,0)
GPGPU-Sim uArch: Shader 3 finished CTA #4 (28462,0), 4 CTAs running
GPGPU-Sim uArch: core:  3, cta: 4 initialized @(28463,0)
GPGPU-Sim uArch: Shader 7 finished CTA #4 (28476,0), 4 CTAs running
GPGPU-Sim uArch: core:  7, cta: 4 initialized @(28477,0)
GPGPU-Sim uArch: Shader 5 finished CTA #3 (28483,0), 4 CTAs running
GPGPU-Sim uArch: core:  5, cta: 3 initialized @(28484,0)
GPGPU-Sim uArch: Shader 3 finished CTA #2 (28484,0), 4 CTAs running
GPGPU-Sim uArch: core:  3, cta: 2 initialized @(28485,0)
GPGPU-Sim uArch: Shader 3 finished CTA #3 (28494,0), 4 CTAs running
GPGPU-Sim uArch: Shader 5 finished CTA #4 (28494,0), 4 CTAs running
GPGPU-Sim uArch: core:  5, cta: 4 initialized @(28495,0)
GPGPU-Sim uArch: core:  3, cta: 3 initialized @(28495,0)
GPGPU-Sim uArch: cycles simulated: 28500  inst.: 10206966 (ipc=358.1) sim_rate=486046 (inst/sec) elapsed = 0:0:00:21 / Sun Feb 28 21:37:01 2016
GPGPU-Sim PTX: 10500000 instructions simulated : ctaid=(2,6,0) tid=(0,5,0)
GPGPU-Sim uArch: Shader 10 finished CTA #4 (28573,0), 4 CTAs running
GPGPU-Sim uArch: core: 10, cta: 4 initialized @(28574,0)
GPGPU-Sim PTX: 10600000 instructions simulated : ctaid=(6,3,0) tid=(12,0,0)
GPGPU-Sim PTX: 10700000 instructions simulated : ctaid=(7,1,0) tid=(1,2,0)
GPGPU-Sim PTX: 10800000 instructions simulated : ctaid=(9,5,0) tid=(8,3,0)
GPGPU-Sim PTX: 10900000 instructions simulated : ctaid=(14,4,0) tid=(8,2,0)
GPGPU-Sim PTX: 11000000 instructions simulated : ctaid=(9,5,0) tid=(15,3,0)
GPGPU-Sim uArch: cycles simulated: 30000  inst.: 10744964 (ipc=358.2) sim_rate=488407 (inst/sec) elapsed = 0:0:00:22 / Sun Feb 28 21:37:02 2016
GPGPU-Sim PTX: 11100000 instructions simulated : ctaid=(1,6,0) tid=(12,1,0)
GPGPU-Sim PTX: 11200000 instructions simulated : ctaid=(13,5,0) tid=(8,6,0)
GPGPU-Sim PTX: 11300000 instructions simulated : ctaid=(0,5,0) tid=(12,2,0)
GPGPU-Sim PTX: 11400000 instructions simulated : ctaid=(6,3,0) tid=(3,7,0)
GPGPU-Sim PTX: 11500000 instructions simulated : ctaid=(12,4,0) tid=(14,4,0)
GPGPU-Sim uArch: cycles simulated: 31000  inst.: 11296091 (ipc=364.4) sim_rate=491134 (inst/sec) elapsed = 0:0:00:23 / Sun Feb 28 21:37:03 2016
GPGPU-Sim PTX: 11600000 instructions simulated : ctaid=(8,4,0) tid=(1,5,0)
GPGPU-Sim PTX: 11700000 instructions simulated : ctaid=(2,6,0) tid=(10,2,0)
GPGPU-Sim PTX: 11800000 instructions simulated : ctaid=(4,5,0) tid=(10,6,0)
GPGPU-Sim PTX: 11900000 instructions simulated : ctaid=(12,6,0) tid=(1,1,0)
GPGPU-Sim PTX: 12000000 instructions simulated : ctaid=(9,2,0) tid=(2,4,0)
GPGPU-Sim PTX: 12100000 instructions simulated : ctaid=(12,6,0) tid=(14,6,0)
GPGPU-Sim PTX: 12200000 instructions simulated : ctaid=(10,0,0) tid=(4,0,0)
GPGPU-Sim uArch: cycles simulated: 32000  inst.: 11918030 (ipc=372.4) sim_rate=496584 (inst/sec) elapsed = 0:0:00:24 / Sun Feb 28 21:37:04 2016
GPGPU-Sim PTX: 12300000 instructions simulated : ctaid=(14,5,0) tid=(3,1,0)
GPGPU-Sim PTX: 12400000 instructions simulated : ctaid=(10,0,0) tid=(15,1,0)
GPGPU-Sim PTX: 12500000 instructions simulated : ctaid=(15,5,0) tid=(6,7,0)
GPGPU-Sim PTX: 12600000 instructions simulated : ctaid=(5,6,0) tid=(11,0,0)
GPGPU-Sim PTX: 12700000 instructions simulated : ctaid=(12,5,0) tid=(9,7,0)
GPGPU-Sim PTX: 12800000 instructions simulated : ctaid=(15,5,0) tid=(7,5,0)
GPGPU-Sim uArch: Shader 14 finished CTA #2 (32925,0), 4 CTAs running
GPGPU-Sim uArch: core: 14, cta: 2 initialized @(32926,0)
GPGPU-Sim uArch: cycles simulated: 33000  inst.: 12541543 (ipc=380.0) sim_rate=501661 (inst/sec) elapsed = 0:0:00:25 / Sun Feb 28 21:37:05 2016
GPGPU-Sim PTX: 12900000 instructions simulated : ctaid=(7,5,0) tid=(4,4,0)
GPGPU-Sim PTX: 13000000 instructions simulated : ctaid=(6,0,0) tid=(15,1,0)
GPGPU-Sim uArch: Shader 7 finished CTA #2 (33308,0), 4 CTAs running
GPGPU-Sim uArch: core:  7, cta: 2 initialized @(33309,0)
GPGPU-Sim PTX: 13100000 instructions simulated : ctaid=(10,1,0) tid=(8,3,0)
GPGPU-Sim PTX: 13200000 instructions simulated : ctaid=(1,7,0) tid=(4,3,0)
GPGPU-Sim PTX: 13300000 instructions simulated : ctaid=(10,1,0) tid=(2,0,0)
GPGPU-Sim PTX: 13400000 instructions simulated : ctaid=(10,0,0) tid=(4,0,0)
GPGPU-Sim PTX: 13500000 instructions simulated : ctaid=(8,6,0) tid=(3,0,0)
GPGPU-Sim PTX: 13600000 instructions simulated : ctaid=(2,5,0) tid=(3,2,0)
GPGPU-Sim PTX: 13700000 instructions simulated : ctaid=(13,4,0) tid=(4,4,0)
GPGPU-Sim uArch: cycles simulated: 34500  inst.: 13360117 (ipc=387.2) sim_rate=513850 (inst/sec) elapsed = 0:0:00:26 / Sun Feb 28 21:37:06 2016
GPGPU-Sim PTX: 13800000 instructions simulated : ctaid=(9,4,0) tid=(4,4,0)
GPGPU-Sim PTX: 13900000 instructions simulated : ctaid=(4,1,0) tid=(15,0,0)
GPGPU-Sim PTX: 14000000 instructions simulated : ctaid=(2,6,0) tid=(2,2,0)
GPGPU-Sim PTX: 14100000 instructions simulated : ctaid=(2,5,0) tid=(6,2,0)
GPGPU-Sim PTX: 14200000 instructions simulated : ctaid=(7,4,0) tid=(13,7,0)
GPGPU-Sim PTX: 14300000 instructions simulated : ctaid=(12,6,0) tid=(9,2,0)
GPGPU-Sim uArch: cycles simulated: 35500  inst.: 13930112 (ipc=392.4) sim_rate=515930 (inst/sec) elapsed = 0:0:00:27 / Sun Feb 28 21:37:07 2016
GPGPU-Sim PTX: 14400000 instructions simulated : ctaid=(12,6,0) tid=(14,6,0)
GPGPU-Sim PTX: 14500000 instructions simulated : ctaid=(8,6,0) tid=(11,1,0)
GPGPU-Sim PTX: 14600000 instructions simulated : ctaid=(11,6,0) tid=(5,4,0)
GPGPU-Sim PTX: 14700000 instructions simulated : ctaid=(12,0,0) tid=(1,0,0)
GPGPU-Sim PTX: 14800000 instructions simulated : ctaid=(13,6,0) tid=(12,1,0)
GPGPU-Sim PTX: 14900000 instructions simulated : ctaid=(6,1,0) tid=(11,1,0)
GPGPU-Sim uArch: cycles simulated: 36500  inst.: 14547620 (ipc=398.6) sim_rate=519557 (inst/sec) elapsed = 0:0:00:28 / Sun Feb 28 21:37:08 2016
GPGPU-Sim PTX: 15000000 instructions simulated : ctaid=(1,5,0) tid=(3,3,0)
GPGPU-Sim PTX: 15100000 instructions simulated : ctaid=(2,5,0) tid=(0,3,0)
GPGPU-Sim PTX: 15200000 instructions simulated : ctaid=(5,6,0) tid=(8,6,0)
GPGPU-Sim PTX: 15300000 instructions simulated : ctaid=(8,3,0) tid=(13,7,0)
GPGPU-Sim PTX: 15400000 instructions simulated : ctaid=(7,2,0) tid=(8,5,0)
GPGPU-Sim PTX: 15500000 instructions simulated : ctaid=(10,6,0) tid=(14,6,0)
GPGPU-Sim uArch: Shader 14 finished CTA #3 (37579,0), 4 CTAs running
GPGPU-Sim uArch: core: 14, cta: 3 initialized @(37580,0)
GPGPU-Sim PTX: 15600000 instructions simulated : ctaid=(8,6,0) tid=(8,2,0)
GPGPU-Sim PTX: 15700000 instructions simulated : ctaid=(8,4,0) tid=(0,0,0)
GPGPU-Sim uArch: cycles simulated: 38000  inst.: 15313742 (ipc=403.0) sim_rate=528060 (inst/sec) elapsed = 0:0:00:29 / Sun Feb 28 21:37:09 2016
GPGPU-Sim PTX: 15800000 instructions simulated : ctaid=(10,6,0) tid=(5,0,0)
GPGPU-Sim PTX: 15900000 instructions simulated : ctaid=(8,6,0) tid=(6,7,0)
GPGPU-Sim PTX: 16000000 instructions simulated : ctaid=(7,1,0) tid=(1,4,0)
GPGPU-Sim PTX: 16100000 instructions simulated : ctaid=(9,5,0) tid=(12,5,0)
GPGPU-Sim uArch: cycles simulated: 39000  inst.: 15762002 (ipc=404.2) sim_rate=525400 (inst/sec) elapsed = 0:0:00:30 / Sun Feb 28 21:37:10 2016
GPGPU-Sim PTX: 16200000 instructions simulated : ctaid=(6,4,0) tid=(10,6,0)
GPGPU-Sim uArch: Shader 13 finished CTA #2 (39177,0), 4 CTAs running
GPGPU-Sim uArch: core: 13, cta: 2 initialized @(39178,0)
GPGPU-Sim PTX: 16300000 instructions simulated : ctaid=(4,5,0) tid=(8,5,0)
GPGPU-Sim PTX: 16400000 instructions simulated : ctaid=(10,5,0) tid=(1,5,0)
GPGPU-Sim PTX: 16500000 instructions simulated : ctaid=(13,6,0) tid=(0,7,0)
GPGPU-Sim PTX: 16600000 instructions simulated : ctaid=(0,7,0) tid=(2,4,0)
GPGPU-Sim PTX: 16700000 instructions simulated : ctaid=(7,4,0) tid=(5,7,0)
GPGPU-Sim PTX: 16800000 instructions simulated : ctaid=(7,6,0) tid=(14,7,0)
GPGPU-Sim PTX: 16900000 instructions simulated : ctaid=(7,2,0) tid=(13,1,0)
GPGPU-Sim uArch: cycles simulated: 40500  inst.: 16454829 (ipc=406.3) sim_rate=530800 (inst/sec) elapsed = 0:0:00:31 / Sun Feb 28 21:37:11 2016
GPGPU-Sim PTX: 17000000 instructions simulated : ctaid=(10,5,0) tid=(3,3,0)
GPGPU-Sim PTX: 17100000 instructions simulated : ctaid=(6,5,0) tid=(14,6,0)
GPGPU-Sim PTX: 17200000 instructions simulated : ctaid=(4,5,0) tid=(4,6,0)
GPGPU-Sim PTX: 17300000 instructions simulated : ctaid=(8,5,0) tid=(14,2,0)
GPGPU-Sim PTX: 17400000 instructions simulated : ctaid=(4,6,0) tid=(1,5,0)
GPGPU-Sim uArch: cycles simulated: 41500  inst.: 16981031 (ipc=409.2) sim_rate=530657 (inst/sec) elapsed = 0:0:00:32 / Sun Feb 28 21:37:12 2016
GPGPU-Sim PTX: 17500000 instructions simulated : ctaid=(0,5,0) tid=(13,2,0)
GPGPU-Sim uArch: Shader 5 finished CTA #3 (41746,0), 4 CTAs running
GPGPU-Sim uArch: core:  5, cta: 3 initialized @(41747,0)
GPGPU-Sim uArch: Shader 5 finished CTA #4 (41760,0), 4 CTAs running
GPGPU-Sim uArch: core:  5, cta: 4 initialized @(41761,0)
GPGPU-Sim PTX: 17600000 instructions simulated : ctaid=(11,4,0) tid=(14,3,0)
GPGPU-Sim uArch: Shader 5 finished CTA #1 (41971,0), 4 CTAs running
GPGPU-Sim uArch: core:  5, cta: 1 initialized @(41972,0)
GPGPU-Sim PTX: 17700000 instructions simulated : ctaid=(10,6,0) tid=(9,3,0)
GPGPU-Sim PTX: 17800000 instructions simulated : ctaid=(8,3,0) tid=(7,2,0)
GPGPU-Sim PTX: 17900000 instructions simulated : ctaid=(11,5,0) tid=(9,4,0)
GPGPU-Sim PTX: 18000000 instructions simulated : ctaid=(11,4,0) tid=(12,5,0)
GPGPU-Sim PTX: 18100000 instructions simulated : ctaid=(9,2,0) tid=(2,6,0)
GPGPU-Sim PTX: 18200000 instructions simulated : ctaid=(8,3,0) tid=(4,2,0)
GPGPU-Sim uArch: cycles simulated: 43000  inst.: 17731559 (ipc=412.4) sim_rate=537319 (inst/sec) elapsed = 0:0:00:33 / Sun Feb 28 21:37:13 2016
GPGPU-Sim uArch: Shader 14 finished CTA #1 (43053,0), 4 CTAs running
GPGPU-Sim uArch: core: 14, cta: 1 initialized @(43054,0)
GPGPU-Sim PTX: 18300000 instructions simulated : ctaid=(1,6,0) tid=(6,4,0)
GPGPU-Sim uArch: Shader 14 finished CTA #0 (43306,0), 4 CTAs running
GPGPU-Sim uArch: core: 14, cta: 0 initialized @(43307,0)
GPGPU-Sim uArch: Shader 6 finished CTA #3 (43373,0), 4 CTAs running
GPGPU-Sim uArch: core:  6, cta: 3 initialized @(43374,0)
GPGPU-Sim PTX: 18400000 instructions simulated : ctaid=(5,0,0) tid=(9,6,0)
GPGPU-Sim uArch: Shader 6 finished CTA #2 (43533,0), 4 CTAs running
GPGPU-Sim uArch: core:  6, cta: 2 initialized @(43534,0)
GPGPU-Sim uArch: Shader 4 finished CTA #1 (43562,0), 4 CTAs running
GPGPU-Sim uArch: core:  4, cta: 1 initialized @(43563,0)
GPGPU-Sim uArch: Shader 12 finished CTA #3 (43564,0), 4 CTAs running
GPGPU-Sim uArch: core: 12, cta: 3 initialized @(43565,0)
GPGPU-Sim uArch: Shader 9 finished CTA #4 (43574,0), 4 CTAs running
GPGPU-Sim uArch: core:  9, cta: 4 initialized @(43575,0)
GPGPU-Sim PTX: 18500000 instructions simulated : ctaid=(8,5,0) tid=(5,0,0)
GPGPU-Sim uArch: Shader 6 finished CTA #1 (43652,0), 4 CTAs running
GPGPU-Sim uArch: core:  6, cta: 1 initialized @(43653,0)
GPGPU-Sim uArch: Shader 6 finished CTA #4 (43672,0), 4 CTAs running
GPGPU-Sim uArch: core:  6, cta: 4 initialized @(43673,0)
GPGPU-Sim uArch: Shader 4 finished CTA #2 (43844,0), 4 CTAs running
GPGPU-Sim uArch: core:  4, cta: 2 initialized @(43845,0)
GPGPU-Sim PTX: 18600000 instructions simulated : ctaid=(2,5,0) tid=(13,7,0)
GPGPU-Sim uArch: Shader 11 finished CTA #4 (43890,0), 4 CTAs running
GPGPU-Sim uArch: core: 11, cta: 4 initialized @(43891,0)
GPGPU-Sim uArch: Shader 4 finished CTA #0 (43978,0), 4 CTAs running
GPGPU-Sim uArch: core:  4, cta: 0 initialized @(43979,0)
GPGPU-Sim uArch: Shader 4 finished CTA #3 (43998,0), 4 CTAs running
GPGPU-Sim uArch: core:  4, cta: 3 initialized @(43999,0)
GPGPU-Sim uArch: cycles simulated: 44000  inst.: 18163435 (ipc=412.8) sim_rate=534218 (inst/sec) elapsed = 0:0:00:34 / Sun Feb 28 21:37:14 2016
GPGPU-Sim PTX: 18700000 instructions simulated : ctaid=(15,7,0) tid=(7,4,0)
GPGPU-Sim uArch: Shader 7 finished CTA #4 (44250,0), 4 CTAs running
GPGPU-Sim uArch: core:  7, cta: 4 initialized @(44251,0)
GPGPU-Sim uArch: Shader 8 finished CTA #4 (44287,0), 4 CTAs running
GPGPU-Sim uArch: core:  8, cta: 4 initialized @(44288,0)
GPGPU-Sim PTX: 18800000 instructions simulated : ctaid=(8,7,0) tid=(12,1,0)
GPGPU-Sim uArch: Shader 10 finished CTA #4 (44367,0), 4 CTAs running
GPGPU-Sim uArch: core: 10, cta: 4 initialized @(44368,0)
GPGPU-Sim uArch: Shader 8 finished CTA #2 (44391,0), 4 CTAs running
GPGPU-Sim uArch: core:  8, cta: 2 initialized @(44392,0)
GPGPU-Sim uArch: Shader 10 finished CTA #3 (44547,0), 4 CTAs running
GPGPU-Sim uArch: core: 10, cta: 3 initialized @(44548,0)
GPGPU-Sim PTX: 18900000 instructions simulated : ctaid=(5,7,0) tid=(6,6,0)
GPGPU-Sim uArch: Shader 13 finished CTA #0 (44647,0), 4 CTAs running
GPGPU-Sim uArch: core: 13, cta: 0 initialized @(44648,0)
GPGPU-Sim uArch: Shader 13 finished CTA #1 (44765,0), 4 CTAs running
GPGPU-Sim uArch: core: 13, cta: 1 initialized @(44766,0)
GPGPU-Sim PTX: 19000000 instructions simulated : ctaid=(7,1,0) tid=(2,5,0)
GPGPU-Sim uArch: Shader 13 finished CTA #3 (44858,0), 4 CTAs running
GPGPU-Sim uArch: core: 13, cta: 3 initialized @(44859,0)
GPGPU-Sim uArch: Shader 2 finished CTA #2 (44861,0), 4 CTAs running
[...]
traffic_breakdown_memtocore[GLOBAL_ACC_W] = 65536 {8:8192,}
traffic_breakdown_memtocore[INST_ACC_R] = 1792480 {136:13180,}
traffic_breakdown_memtocore[LOCAL_ACC_R] = 1006128 {136:7398,}
traffic_breakdown_memtocore[LOCAL_ACC_W] = 355848 {8:44481,}
maxmrqlatency = 944 
maxdqlatency = 0 
maxmflatency = 2857 
averagemflatency = 258 
max_icnt2mem_latency = 1917 
max_icnt2sh_latency = 141036 
mrq_lat_table:2812 	106 	231 	474 	718 	633 	913 	1805 	1154 	122 	0 	0 	0 	0 	0 	0 	0 	0 	0 	0 	0 	0 	0 	0 	0 	0 	0 	0 	0 	0 	0 	0 	
dq_lat_table:0 	0 	0 	0 	0 	0 	0 	0 	0 	0 	0 	0 	0 	0 	0 	0 	0 	0 	0 	0 	0 	0 	0 	0 	0 	0 	0 	0 	0 	0 	0 	0 	
mf_lat_table:0 	0 	0 	0 	0 	0 	0 	55967 	4248 	1405 	2115 	221 	0 	0 	0 	0 	0 	0 	0 	0 	0 	0 	0 	0 	0 	0 	0 	0 	0 	0 	0 	0 	
icnt2mem_lat_table:0 	0 	0 	21401 	13696 	13303 	29599 	1741 	1030 	1276 	162 	0 	0 	0 	0 	0 	0 	0 	0 	0 	0 	0 	0 	0 	
icnt2sh_lat_table:0 	0 	0 	4888 	4058 	2046 	291 	0 	0 	150 	361 	697 	1637 	4955 	6130 	11260 	22854 	4629 	0 	0 	0 	0 	0 	0 	
mf_lat_pw_table:0 	0 	0 	0 	0 	0 	0 	245 	7 	4 	13 	0 	0 	0 	0 	0 	0 	0 	0 	0 	0 	0 	0 	0 	0 	0 	0 	0 	0 	0 	0 	0 	
maximum concurrent accesses to same row:
dram[0]:        29        44        32        32        24        24        18        20        18        18        12        10        10        16        16        18 
dram[1]:        42        42        32        31        20        22        16        12        16        14        10        10        14        12        16        16 
dram[2]:        44        45        41        41        28        28        16        16        20        16        12        12        14        12        16        16 
dram[3]:        43        43        39        41        25        23        16        20        20        18        12        12        14        10        16        16 
dram[4]:        45        46        43        47        27        28        20        18        20        20        12        12        14        16        16        16 
dram[5]:        45        45        40        39        24        29        20        16        16        16        10        10        12        14        14        14 
maximum service time to same row:
dram[0]:      9723      7347      2794      3127      2268      2489      2705      2313     35271     35736     56553     61756     90516     93445    117224    118035 
dram[1]:      8107      9393      2979      4535      2329      2050      2226      2402     35140     35606     57863     61723     91641     93172    117470    117847 
dram[2]:     10904      9559      3216      3214      2747      3121      2795      2772     35939     34896     60840     56509     93185     90316    118075    116881 
dram[3]:      9906     10081      3430      3408      2760      3062     18436      2569     36057     34735     60803     58284     93268     91066    118365    117303 
dram[4]:     10081     10927      3000      3244      2554      2921      2880      2930     34580     36891     57072     60960     90186     93194    116865    118898 
dram[5]:      6747     11615      3088      3009      2583      2782      2697     18556     34730     36875     58659     60809     90826     93325    117297    118808 
average row accesses per activate:
dram[0]: 10.714286 26.000000 32.000000 32.000000  4.882353  4.777778  7.714286  6.250000  8.076923  8.615385  6.733333  6.800000  6.933333  7.785714  8.333333  6.923077 
dram[1]: 11.000000 25.333334 32.000000 16.250000  3.904762  5.400000  5.300000  5.842105  6.666667  6.352941  5.764706  7.846154 10.181818  6.312500  8.545455  7.538462 
dram[2]: 11.285714 26.333334 36.500000 36.500000  6.615385  6.214286  6.562500  7.500000 10.090909  7.923077  6.733333  9.363636  7.333333 10.600000  9.777778  7.538462 
dram[3]: 15.400000 25.666666 35.500000 36.500000  5.000000  7.818182  5.450000  8.307693  9.818182  9.363636  7.769231  9.000000  5.941176  8.230769  8.909091  8.363636 
dram[4]: 15.800000 26.666666 37.500000 39.500000  5.176471 15.333333  6.294117  8.153846 12.000000 12.111111  7.615385  7.846154  9.818182  8.230769 10.888889 10.000000 
dram[5]: 26.333334 20.000000 36.000000 35.500000  7.363636  7.083333  9.545455  7.266667  7.769231 12.111111  6.600000  6.733333  8.153846  7.769231  8.454545  8.727273 
average row locality = 8968/1042 = 8.606526
number of total memory accesses made:
dram[0]:         0         0         0         0         0         0         0         0         0         0         0         0         0         0         0         0 
dram[1]:         0         0         0         0         0         0         0         0         0         0         0         0         0         0         0         0 
dram[2]:         0         0         0         0         0         0         0         0         0         0         0         0         0         0         0         0 
dram[3]:         0         0         0         0         0         0         0         0         0         0         0         0         0         0         0         0 
dram[4]:         0         0         0         0         0         0         0         0         0         0         0         0         0         0         0         0 
dram[5]:         0         0         0         0         0         0         0         0         0         0         0         0         0         0         0         0 
total accesses: 0
min_bank_accesses = 0!
min_chip_accesses = 0!
number of total read accesses:
dram[0]:        35        34        32        32        37        37        48        48        48        48        48        48        48        48        42        42 
dram[1]:        35        34        32        32        37        37        48        48        48        48        48        48        48        48        42        42 
dram[2]:        35        34        32        32        37        38        48        48        48        48        48        48        48        48        42        42 
dram[3]:        34        34        32        32        37        38        48        48        48        48        48        48        48        48        42        42 
dram[4]:        34        34        32        32        37        38        48        48        48        48        48        48        48        48        42        42 
dram[5]:        34        35        32        32        37        38        48        48        48        48        48        48        48        48        42        42 
total reads: 4052
bank skew: 48/32 = 1.50
chip skew: 676/675 = 1.00
number of total write accesses:
dram[0]:        40        44        32        32        46        49        60        52        57        64        53        54        56        61        58        48 
dram[1]:        42        42        32        33        45        44        58        63        52        60        50        54        64        53        52        56 
dram[2]:        44        45        41        41        49        49        57        57        63        55        53        55        62        58        46        56 
dram[3]:        43        43        39        41        43        48        61        60        60        55        53        51        53        59        56        50 
dram[4]:        45        46        43        47        51        54        59        58        60        61        51        54        60        59        56        48 
dram[5]:        45        45        40        39        44        47        57        61        53        61        51        53        58        53        51        54 
total reads: 4916
bank skew: 64/32 = 2.00
chip skew: 852/800 = 1.07
average mf latency per bank:
dram[0]:       2471      1763      2471      2226      2190      1967      1957      1919      1897      1626      1779      1818      1791      1614      1604      1673
dram[1]:       2127      1797      2225      2173      1893      1872      1663      1583      1692      1540      1691      1664      1470      1632      1531      1437
dram[2]:       2139      2033      2350      2306      2292      2114      1905      2037      1729      1811      1854      1778      1619      1682      1771      1516
dram[3]:       1911      2142      2267      2195      2110      2008      1793      1789      1711      1731      1759      1708      1666      1597      1510      1534
dram[4]:       2063      1927      2392      2267      2124      2199      2054      1996      1924      1853      1923      1938      1717      1814      1697      1784
dram[5]:       1881      1816      2286      2280      1966      2029      1770      1767      1767      1587      1702      1715      1603      1640      1593      1493
maximum mf latency per bank:
dram[0]:       2222      1682      2591      1803      2686      2545      2389      1984      2246      2062      2186      1950      2401      2218      2451      2467
dram[1]:       1641      1647      2374      1894      1815      1935      1756      1745      1844      1857      1689      1706      1660      1692      2025      1695
dram[2]:       1851      1989      2123      2119      2711      2394      2579      2760      2339      2551      2343      1918      2169      2230      1940      2082
dram[3]:       2151      2303      2121      2162      2239      2327      2456      2309      2432      2216      2122      2100      2290      2144      1807      2153
dram[4]:       2083      2236      2303      2226      2069      2857      2456      2295      2618      2256      2459      2250      2282      2810      2300      2312
dram[5]:       1921      1634      2095      2263      2025      1964      2144      2100      1799      1829      1574      1781      1759      1582      1989      1965

Number of Memory Banks Accessed per Memory Operation per Warp (from 0):
0	0	0	0	0	0	0	0	0	0	0	0	0	0	0	0	0	0	0	0	0	0	0	0	0	0	0	0	0	0	0	0	0	0	0	0	0	0	0	0	0	0	0	0	0	0	0	0	0	0	0	0	0	0	0	0	0	0	0	0	0	0	0	0	0	0	0	0	0	0	0	0	0	0	0	0	0	0	0	0	0	0	0	0	0	0	0	0	0	0	0	0	0	0	0	0	
Average # of Memory Banks Accessed per Memory Operation per Warp=-nan

position of mrq chosen
0	0	0	0	0	0	0	0	0	0	0	0	0	0	0	0	

average position of mrq chosen = -nan
Memory Partition 0: 
Cache L2_bank_000:
MSHR contents

Cache L2_bank_001:
MSHR contents

In Dram Latency Queue (total = 0): 
DRAM[0]: 16 bks, busW=4 BL=8 CL=12, tRRD=2 tCCD=6, tRCD=12 tRAS=28 tRP=12 tRC=40
n_cmd=186168 n_nop=179080 n_act=189 n_pre=173 n_req=1481 n_rd=5400 n_write=1326 bw_util=0.07226
n_activity=21130 dram_eff=0.6366
bk0: 280a 181570i bk1: 272a 181870i bk2: 256a 180565i bk3: 256a 181631i bk4: 296a 177881i bk5: 296a 177756i bk6: 384a 176614i bk7: 384a 176908i bk8: 384a 178469i bk9: 384a 178780i bk10: 384a 178578i bk11: 384a 177674i bk12: 384a 177688i bk13: 384a 177610i bk14: 336a 178421i bk15: 336a 178517i 
dram_util_bins: 0 0 0 0 0 0 0 0 0 0
dram_eff_bins: 0 0 0 0 0 0 0 0 0 0
mrqq: max=16 avg=1.17174
Memory Partition 1: 
Cache L2_bank_002:
MSHR contents

Cache L2_bank_003:
MSHR contents

In Dram Latency Queue (total = 0): 
DRAM[1]: 16 bks, busW=4 BL=8 CL=12, tRRD=2 tCCD=6, tRCD=12 tRAS=28 tRP=12 tRC=40
n_cmd=186168 n_nop=179054 n_act=204 n_pre=188 n_req=1475 n_rd=5400 n_write=1322 bw_util=0.07221
n_activity=21443 dram_eff=0.627
bk0: 280a 181747i bk1: 272a 181192i bk2: 256a 180214i bk3: 256a 180584i bk4: 296a 178659i bk5: 296a 178283i bk6: 384a 177245i bk7: 384a 177805i bk8: 384a 179671i bk9: 384a 179046i bk10: 384a 178240i bk11: 384a 177664i bk12: 384a 177862i bk13: 384a 178559i bk14: 336a 178473i bk15: 336a 178962i 
dram_util_bins: 0 0 0 0 0 0 0 0 0 0
dram_eff_bins: 0 0 0 0 0 0 0 0 0 0
mrqq: max=16 avg=1.03234
Memory Partition 2: 
Cache L2_bank_004:
MSHR contents

Cache L2_bank_005:
MSHR contents

In Dram Latency Queue (total = 0): 
DRAM[2]: 16 bks, busW=4 BL=8 CL=12, tRRD=2 tCCD=6, tRCD=12 tRAS=28 tRP=12 tRC=40
n_cmd=186168 n_nop=179060 n_act=168 n_pre=152 n_req=1507 n_rd=5408 n_write=1380 bw_util=0.07292
n_activity=21497 dram_eff=0.6315
bk0: 280a 181541i bk1: 272a 181086i bk2: 256a 181028i bk3: 256a 180538i bk4: 296a 178926i bk5: 304a 178346i bk6: 384a 176736i bk7: 384a 175875i bk8: 384a 178927i bk9: 384a 178270i bk10: 384a 178605i bk11: 384a 178094i bk12: 384a 178247i bk13: 384a 177865i bk14: 336a 179606i bk15: 336a 178749i 
dram_util_bins: 0 0 0 0 0 0 0 0 0 0
dram_eff_bins: 0 0 0 0 0 0 0 0 0 0
mrqq: max=16 avg=1.18977
Memory Partition 3: 
Cache L2_bank_006:
MSHR contents

Cache L2_bank_007:
MSHR contents

In Dram Latency Queue (total = 0): 
DRAM[3]: 16 bks, busW=4 BL=8 CL=12, tRRD=2 tCCD=6, tRCD=12 tRAS=28 tRP=12 tRC=40
n_cmd=186168 n_nop=179089 n_act=170 n_pre=154 n_req=1490 n_rd=5400 n_write=1355 bw_util=0.07257
n_activity=21483 dram_eff=0.6289
bk0: 272a 181941i bk1: 272a 181279i bk2: 256a 181110i bk3: 256a 180800i bk4: 296a 178656i bk5: 304a 178985i bk6: 384a 177222i bk7: 384a 176831i bk8: 384a 179294i bk9: 384a 179328i bk10: 384a 178506i bk11: 384a 179054i bk12: 384a 178443i bk13: 384a 178377i bk14: 336a 179579i bk15: 336a 178778i 
dram_util_bins: 0 0 0 0 0 0 0 0 0 0
dram_eff_bins: 0 0 0 0 0 0 0 0 0 0
mrqq: max=16 avg=1.10486
Memory Partition 4: 
Cache L2_bank_008:
MSHR contents

Cache L2_bank_009:
MSHR contents

In Dram Latency Queue (total = 0): 
DRAM[4]: 16 bks, busW=4 BL=8 CL=12, tRRD=2 tCCD=6, tRCD=12 tRAS=28 tRP=12 tRC=40
n_cmd=186168 n_nop=179069 n_act=151 n_pre=135 n_req=1527 n_rd=5400 n_write=1413 bw_util=0.07319
n_activity=21480 dram_eff=0.6344
bk0: 272a 180900i bk1: 272a 181163i bk2: 256a 181112i bk3: 256a 180963i bk4: 296a 178876i bk5: 304a 177764i bk6: 384a 176531i bk7: 384a 176200i bk8: 384a 178426i bk9: 384a 178682i bk10: 384a 178753i bk11: 384a 178466i bk12: 384a 178252i bk13: 384a 178521i bk14: 336a 179380i bk15: 336a 179499i 
dram_util_bins: 0 0 0 0 0 0 0 0 0 0
dram_eff_bins: 0 0 0 0 0 0 0 0 0 0
mrqq: max=16 avg=1.20566
Memory Partition 5: 
Cache L2_bank_010:
MSHR contents

Cache L2_bank_011:
MSHR contents

In Dram Latency Queue (total = 0): 
DRAM[5]: 16 bks, busW=4 BL=8 CL=12, tRRD=2 tCCD=6, tRCD=12 tRAS=28 tRP=12 tRC=40
n_cmd=186168 n_nop=179098 n_act=160 n_pre=144 n_req=1488 n_rd=5408 n_write=1358 bw_util=0.07269
n_activity=21721 dram_eff=0.623
bk0: 272a 180794i bk1: 280a 181360i bk2: 256a 180766i bk3: 256a 180675i bk4: 296a 178924i bk5: 304a 178546i bk6: 384a 177755i bk7: 384a 177853i bk8: 384a 179237i bk9: 384a 179421i bk10: 384a 178781i bk11: 384a 178641i bk12: 384a 179131i bk13: 384a 178781i bk14: 336a 180127i bk15: 336a 179372i 
dram_util_bins: 0 0 0 0 0 0 0 0 0 0
dram_eff_bins: 0 0 0 0 0 0 0 0 0 0
mrqq: max=16 avg=1.0679

========= L2 cache stats =========
L2_cache_bank[0]: Access = 6716, Miss = 338, Miss_rate = 0.050, Pending_hits = 76, Reservation_fails = 845
L2_cache_bank[1]: Access = 6857, Miss = 337, Miss_rate = 0.049, Pending_hits = 75, Reservation_fails = 222
L2_cache_bank[2]: Access = 6737, Miss = 338, Miss_rate = 0.050, Pending_hits = 69, Reservation_fails = 571
L2_cache_bank[3]: Access = 6725, Miss = 337, Miss_rate = 0.050, Pending_hits = 76, Reservation_fails = 132
L2_cache_bank[4]: Access = 6652, Miss = 338, Miss_rate = 0.051, Pending_hits = 89, Reservation_fails = 972
L2_cache_bank[5]: Access = 6847, Miss = 338, Miss_rate = 0.049, Pending_hits = 86, Reservation_fails = 213
L2_cache_bank[6]: Access = 6781, Miss = 337, Miss_rate = 0.050, Pending_hits = 77, Reservation_fails = 123
L2_cache_bank[7]: Access = 7040, Miss = 338, Miss_rate = 0.048, Pending_hits = 77, Reservation_fails = 210
L2_cache_bank[8]: Access = 7161, Miss = 337, Miss_rate = 0.047, Pending_hits = 96, Reservation_fails = 122
L2_cache_bank[9]: Access = 6859, Miss = 338, Miss_rate = 0.049, Pending_hits = 97, Reservation_fails = 136
L2_cache_bank[10]: Access = 7021, Miss = 337, Miss_rate = 0.048, Pending_hits = 70, Reservation_fails = 405
L2_cache_bank[11]: Access = 6812, Miss = 339, Miss_rate = 0.050, Pending_hits = 86, Reservation_fails = 319
L2_total_cache_accesses = 82208
L2_total_cache_misses = 4052
L2_total_cache_miss_rate = 0.0493
L2_total_cache_pending_hits = 974
L2_total_cache_reservation_fails = 4270
L2_total_cache_breakdown:
	L2_cache_stats_breakdown[GLOBAL_ACC_R][HIT] = 3851
	L2_cache_stats_breakdown[GLOBAL_ACC_R][HIT_RESERVED] = 3
	L2_cache_stats_breakdown[GLOBAL_ACC_R][MISS] = 1
	L2_cache_stats_breakdown[GLOBAL_ACC_R][RESERVATION_FAIL] = 25
	L2_cache_stats_breakdown[LOCAL_ACC_R][HIT] = 7398
	L2_cache_stats_breakdown[CONST_ACC_R][HIT] = 22
	L2_cache_stats_breakdown[CONST_ACC_R][HIT_RESERVED] = 6
	L2_cache_stats_breakdown[CONST_ACC_R][MISS] = 2
	L2_cache_stats_breakdown[CONST_ACC_R][RESERVATION_FAIL] = 693
	L2_cache_stats_breakdown[GLOBAL_ACC_W][HIT] = 6514
	L2_cache_stats_breakdown[GLOBAL_ACC_W][HIT_RESERVED] = 654
	L2_cache_stats_breakdown[GLOBAL_ACC_W][MISS] = 1024
	L2_cache_stats_breakdown[GLOBAL_ACC_W][RESERVATION_FAIL] = 2
	L2_cache_stats_breakdown[LOCAL_ACC_W][HIT] = 41243
	L2_cache_stats_breakdown[LOCAL_ACC_W][HIT_RESERVED] = 238
	L2_cache_stats_breakdown[LOCAL_ACC_W][MISS] = 3000
	L2_cache_stats_breakdown[LOCAL_ACC_W][RESERVATION_FAIL] = 22
	L2_cache_stats_breakdown[L1_WRBK_ACC][HIT] = 5072
	L2_cache_stats_breakdown[INST_ACC_R][HIT] = 13082
	L2_cache_stats_breakdown[INST_ACC_R][HIT_RESERVED] = 73
	L2_cache_stats_breakdown[INST_ACC_R][MISS] = 25
	L2_cache_stats_breakdown[INST_ACC_R][RESERVATION_FAIL] = 3528
L2_cache_data_port_util = 0.173
L2_cache_fill_port_util = 0.038

icnt_total_pkts_mem_to_simt=174928
icnt_total_pkts_simt_to_mem=293558
LD_mem_lat_dist  0 0 0 0 0 0 0 0 0 0 0 0 0 0 0 0 0 0 0 0 0 0 0 0 0 0 0
ST_mem_lat_dist  0 0 0 0 0 0 0 0 0 0 0 0 0 0 0 0 0 0 0 0 0 0 0 0 0 0 0
----------------------------Interconnect-DETAILS--------------------------------
Class 0:
Packet latency average = 17.8468
	minimum = 6
	maximum = 1500
Network latency average = 13.9712
	minimum = 6
	maximum = 1285
Slowest packet = 4821
Flit latency average = 13.1914
	minimum = 6
	maximum = 1281
Slowest flit = 15479
Fragmentation average = 0.15727
	minimum = 0
	maximum = 1113
Injected packet rate average = 0.0418445
	minimum = 0.0346647 (at node 0)
	maximum = 0.0473705 (at node 23)
Accepted packet rate average = 0.0418445
	minimum = 0.0334664 (at node 0)
	maximum = 0.0507739 (at node 23)
Injected flit rate average = 0.123027
	minimum = 0.0967902 (at node 19)
	maximum = 0.150634 (at node 11)
Accepted flit rate average= 0.123027
	minimum = 0.0703645 (at node 0)
	maximum = 0.178471 (at node 23)
Injected packet length average = 2.94009
Accepted packet length average = 2.94009
Total in-flight flits = 0 (0 measured)
====== Overall Traffic Statistics ======
====== Traffic class 0 ======
Packet latency average = 17.8468 (1 samples)
	minimum = 6 (1 samples)
	maximum = 1500 (1 samples)
Network latency average = 13.9712 (1 samples)
	minimum = 6 (1 samples)
	maximum = 1285 (1 samples)
Flit latency average = 13.1914 (1 samples)
	minimum = 6 (1 samples)
	maximum = 1281 (1 samples)
Fragmentation average = 0.15727 (1 samples)
	minimum = 0 (1 samples)
	maximum = 1113 (1 samples)
Injected packet rate average = 0.0418445 (1 samples)
	minimum = 0.0346647 (1 samples)
	maximum = 0.0473705 (1 samples)
Accepted packet rate average = 0.0418445 (1 samples)
	minimum = 0.0334664 (1 samples)
	maximum = 0.0507739 (1 samples)
Injected flit rate average = 0.123027 (1 samples)
	minimum = 0.0967902 (1 samples)
	maximum = 0.150634 (1 samples)
Accepted flit rate average = 0.123027 (1 samples)
	minimum = 0.0703645 (1 samples)
	maximum = 0.178471 (1 samples)
Injected packet size average = 2.94009 (1 samples)
Accepted packet size average = 2.94009 (1 samples)
Hops average = 1 (1 samples)
----------------------------END-of-Interconnect-DETAILS-------------------------


gpgpu_simulation_time = 0 days, 0 hrs, 2 min, 16 sec (136 sec)
gpgpu_simulation_rate = 460901 (inst/sec)
gpgpu_simulation_rate = 1037 (cycle/sec)
GPGPU-Sim API: Stream Manager State
GPGPU-Sim: detected inactive GPU simulation thread

checksum=75ef40cb5b8e
Kernel Time: 135281.484375 
