

        *** GPGPU-Sim Simulator Version 3.2.2  [build 0] ***


GPGPU-Sim PTX: simulation mode 0 (can change with PTX_SIM_MODE_FUNC environment variable:
               1=functional simulation only, 0=detailed performance simulator)
GPGPU-Sim: Configuration options:

-network_mode                           1 # Interconnection network mode
-inter_config_file   config_fermi_islip.icnt # Interconnection network config file
-gpgpu_ptx_use_cuobjdump                    1 # Use cuobjdump to extract ptx and sass from binaries
-gpgpu_experimental_lib_support                    0 # Try to extract code from cuda libraries [Broken because of unknown cudaGetExportTable]
-gpgpu_ptx_convert_to_ptxplus                    0 # Convert SASS (native ISA) to ptxplus and run ptxplus
-gpgpu_ptx_force_max_capability                   20 # Force maximum compute capability
-gpgpu_ptx_inst_debug_to_file                    0 # Dump executed instructions' debug information to file
-gpgpu_ptx_inst_debug_file       inst_debug.txt # Executed instructions' debug output file
-gpgpu_ptx_inst_debug_thread_uid                    1 # Thread UID for executed instructions' debug output
-gpgpu_simd_model                       1 # 1 = post-dominator
-gpgpu_shader_core_pipeline              1536:32 # shader core pipeline config, i.e., {<nthread>:<warpsize>}
-gpgpu_tex_cache:l1  4:128:24,L:R:m:N:L,F:128:4,128:2 # per-shader L1 texture cache  (READ-ONLY) config  {<nsets>:<bsize>:<assoc>,<rep>:<wr>:<alloc>:<wr_alloc>,<mshr>:<N>:<merge>,<mq>:<rf>}
-gpgpu_const_cache:l1 64:64:2,L:R:f:N:L,A:2:32,4 # per-shader L1 constant memory cache  (READ-ONLY) config  {<nsets>:<bsize>:<assoc>,<rep>:<wr>:<alloc>:<wr_alloc>,<mshr>:<N>:<merge>,<mq>} 
-gpgpu_cache:il1     4:128:4,L:R:f:N:L,A:2:32,4 # shader L1 instruction cache config  {<nsets>:<bsize>:<assoc>,<rep>:<wr>:<alloc>:<wr_alloc>,<mshr>:<N>:<merge>,<mq>} 
-gpgpu_cache:dl1     32:128:2,L:L:m:N:H,A:32:8,8 # per-shader L1 data cache config  {<nsets>:<bsize>:<assoc>,<rep>:<wr>:<alloc>:<wr_alloc>,<mshr>:<N>:<merge>,<mq> | none}
-gpgpu_cache:dl1PrefL1                 none # per-shader L1 data cache config  {<nsets>:<bsize>:<assoc>,<rep>:<wr>:<alloc>:<wr_alloc>,<mshr>:<N>:<merge>,<mq> | none}
-gpgpu_cache:dl1PreShared                 none # per-shader L1 data cache config  {<nsets>:<bsize>:<assoc>,<rep>:<wr>:<alloc>:<wr_alloc>,<mshr>:<N>:<merge>,<mq> | none}
-gmem_skip_L1D                          0 # global memory access skip L1D cache (implements -Xptxas -dlcm=cg, default=no skip)
-gpgpu_perfect_mem                      0 # enable perfect memory mode (no cache miss)
-n_regfile_gating_group                    4 # group of lanes that should be read/written together)
-gpgpu_clock_gated_reg_file                    0 # enable clock gated reg file for power calculations
-gpgpu_clock_gated_lanes                    0 # enable clock gated lanes for power calculations
-gpgpu_shader_registers                32768 # Number of registers per shader core. Limits number of concurrent CTAs. (default 8192)
-gpgpu_shader_cta                       8 # Maximum number of concurrent CTAs in shader (default 8)
-gpgpu_num_cta_barriers                   16 # Maximum number of named barriers per CTA (default 16)
-gpgpu_n_clusters                      15 # number of processing clusters
-gpgpu_n_cores_per_cluster                    1 # number of simd cores per cluster
-gpgpu_n_cluster_ejection_buffer_size                    8 # number of packets in ejection buffer
-gpgpu_n_ldst_response_buffer_size                    2 # number of response packets in ld/st unit ejection buffer
-gpgpu_shmem_size                   16384 # Size of shared memory per shader core (default 16kB)
-gpgpu_shmem_size                   49152 # Size of shared memory per shader core (default 16kB)
-gpgpu_shmem_size_PrefL1                16384 # Size of shared memory per shader core (default 16kB)
-gpgpu_shmem_size_PrefShared                16384 # Size of shared memory per shader core (default 16kB)
-gpgpu_shmem_num_banks                   32 # Number of banks in the shared memory in each shader core (default 16)
-gpgpu_shmem_limited_broadcast                    0 # Limit shared memory to do one broadcast per cycle (default on)
-gpgpu_shmem_warp_parts                    1 # Number of portions a warp is divided into for shared memory bank conflict check 
-gpgpu_warpdistro_shader                   -1 # Specify which shader core to collect the warp size distribution from
-gpgpu_warp_issue_shader                    0 # Specify which shader core to collect the warp issue distribution from
-gpgpu_local_mem_map                    1 # Mapping from local memory space address to simulated GPU physical address space (default = enabled)
-gpgpu_num_reg_banks                   16 # Number of register banks (default = 8)
-gpgpu_reg_bank_use_warp_id                    0 # Use warp ID in mapping registers to banks (default = off)
-gpgpu_operand_collector_num_units_sp                    6 # number of collector units (default = 4)
-gpgpu_operand_collector_num_units_sfu                    8 # number of collector units (default = 4)
-gpgpu_operand_collector_num_units_mem                    2 # number of collector units (default = 2)
-gpgpu_operand_collector_num_units_gen                    0 # number of collector units (default = 0)
-gpgpu_operand_collector_num_in_ports_sp                    2 # number of collector unit in ports (default = 1)
-gpgpu_operand_collector_num_in_ports_sfu                    1 # number of collector unit in ports (default = 1)
-gpgpu_operand_collector_num_in_ports_mem                    1 # number of collector unit in ports (default = 1)
-gpgpu_operand_collector_num_in_ports_gen                    0 # number of collector unit in ports (default = 0)
-gpgpu_operand_collector_num_out_ports_sp                    2 # number of collector unit in ports (default = 1)
-gpgpu_operand_collector_num_out_ports_sfu                    1 # number of collector unit in ports (default = 1)
-gpgpu_operand_collector_num_out_ports_mem                    1 # number of collector unit in ports (default = 1)
-gpgpu_operand_collector_num_out_ports_gen                    0 # number of collector unit in ports (default = 0)
-gpgpu_coalesce_arch                   13 # Coalescing arch (default = 13, anything else is off for now)
-gpgpu_num_sched_per_core                    2 # Number of warp schedulers per core
-gpgpu_max_insn_issue_per_warp                    1 # Max number of instructions that can be issued per warp in one cycle by scheduler
-gpgpu_simt_core_sim_order                    1 # Select the simulation order of cores in a cluster (0=Fix, 1=Round-Robin)
-gpgpu_pipeline_widths        2,1,1,2,1,1,2 # Pipeline widths ID_OC_SP,ID_OC_SFU,ID_OC_MEM,OC_EX_SP,OC_EX_SFU,OC_EX_MEM,EX_WB
-gpgpu_num_sp_units                     2 # Number of SP units (default=1)
-gpgpu_num_sfu_units                    1 # Number of SF units (default=1)
-gpgpu_num_mem_units                    1 # Number if ldst units (default=1) WARNING: not hooked up to anything
-gpgpu_scheduler                      gto # Scheduler configuration: < lrr | gto | two_level_active > If two_level_active:<num_active_warps>:<inner_prioritization>:<outer_prioritization>For complete list of prioritization values see shader.h enum scheduler_prioritization_typeDefault: gto
-gpgpu_dram_scheduler                    1 # 0 = fifo, 1 = FR-FCFS (defaul)
-gpgpu_dram_partition_queues              8:8:8:8 # i2$:$2d:d2$:$2i
-l2_ideal                               0 # Use a ideal L2 cache that always hit
-gpgpu_cache:dl2     64:128:8,L:B:m:W:L,A:32:4,4:0,32 # unified banked L2 data cache config  {<nsets>:<bsize>:<assoc>,<rep>:<wr>:<alloc>:<wr_alloc>,<mshr>:<N>:<merge>,<mq>}
-gpgpu_cache:dl2_texture_only                    0 # L2 cache used for texture only
-gpgpu_n_mem                            6 # number of memory modules (e.g. memory controllers) in gpu
-gpgpu_n_sub_partition_per_mchannel                    2 # number of memory subpartition in each memory module
-gpgpu_n_mem_per_ctrlr                    2 # number of memory chips per memory controller
-gpgpu_memlatency_stat                   14 # track and display latency statistics 0x2 enables MC, 0x4 enables queue logs
-gpgpu_frfcfs_dram_sched_queue_size                   16 # 0 = unlimited (default); # entries per chip
-gpgpu_dram_return_queue_size                  116 # 0 = unlimited (default); # entries per chip
-gpgpu_dram_buswidth                    4 # default = 4 bytes (8 bytes per cycle at DDR)
-gpgpu_dram_burst_length                    8 # Burst length of each DRAM request (default = 4 data bus cycle)
-dram_data_command_freq_ratio                    4 # Frequency ratio between DRAM data bus and command bus (default = 2 times, i.e. DDR)
-gpgpu_dram_timing_opt nbk=16:CCD=2:RRD=6:RCD=12:RAS=28:RP=12:RC=40: CL=12:WL=4:CDLR=5:WR=12:nbkgrp=4:CCDL=3:RTPL=2 # DRAM timing parameters = {nbk:tCCD:tRRD:tRCD:tRAS:tRP:tRC:CL:WL:tCDLR:tWR:nbkgrp:tCCDL:tRTPL}
-rop_latency                          120 # ROP queue latency (default 85)
-dram_latency                         100 # DRAM latency (default 30)
-gpgpu_mem_addr_mapping dramid@8;00000000.00000000.00000000.00000000.0000RRRR.RRRRRRRR.BBBCCCCB.CCSSSSSS # mapping memory address to dram model {dramid@<start bit>;<memory address map>}
-gpgpu_mem_addr_test                    0 # run sweep test to check address mapping for aliased address
-gpgpu_mem_address_mask                    1 # 0 = old addressing mask, 1 = new addressing mask, 2 = new add. mask + flipped bank sel and chip sel bits
-gpuwattch_xml_file  gpuwattch_gtx480.xml # GPUWattch XML file
-power_simulation_enabled                    0 # Turn on power simulator (1=On, 0=Off)
-power_per_cycle_dump                    0 # Dump detailed power output each cycle
-power_trace_enabled                    0 # produce a file for the power trace (1=On, 0=Off)
-power_trace_zlevel                     6 # Compression level of the power trace output log (0=no comp, 9=highest)
-steady_power_levels_enabled                    0 # produce a file for the steady power levels (1=On, 0=Off)
-steady_state_definition                  8:4 # allowed deviation:number of samples
-gpgpu_max_cycle                        0 # terminates gpu simulation early (0 = no limit)
-gpgpu_max_insn                         0 # terminates gpu simulation early (0 = no limit)
-gpgpu_max_cta                          0 # terminates gpu simulation early (0 = no limit)
-gpgpu_runtime_stat                   500 # display runtime statistics such as dram utilization {<freq>:<flag>}
-liveness_message_freq                    1 # Minimum number of seconds between simulation liveness messages (0 = always print)
-gpgpu_flush_l1_cache                    0 # Flush L1 cache at the end of each kernel call
-gpgpu_flush_l2_cache                    0 # Flush L2 cache at the end of each kernel call
-gpgpu_deadlock_detect                    1 # Stop the simulation at deadlock (1=on (default), 0=off)
-gpgpu_ptx_instruction_classification                    0 # if enabled will classify ptx instruction types per kernel (Max 255 kernels now)
-gpgpu_ptx_sim_mode                     0 # Select between Performance (default) or Functional simulation (1)
-gpgpu_clock_domains 700.0:700.0:700.0:924.0 # Clock Domain Frequencies in MhZ {<Core Clock>:<ICNT Clock>:<L2 Clock>:<DRAM Clock>}
-gpgpu_max_concurrent_kernel                    8 # maximum kernels that can run concurrently on GPU
-gpgpu_cflog_interval                    0 # Interval between each snapshot in control flow logger
-visualizer_enabled                     0 # Turn on visualizer output (1=On, 0=Off)
-visualizer_outputfile                 NULL # Specifies the output log file for visualizer
-visualizer_zlevel                      6 # Compression level of the visualizer output log (0=no comp, 9=highest)
-trace_enabled                          0 # Turn on traces
-trace_components                    none # comma seperated list of traces to enable. Complete list found in trace_streams.tup. Default none
-trace_sampling_core                    0 # The core which is printed using CORE_DPRINTF. Default 0
-trace_sampling_memory_partition                   -1 # The memory partition which is printed using MEMPART_DPRINTF. Default -1 (i.e. all)
-enable_ptx_file_line_stats                    1 # Turn on PTX source line statistic profiling. (1 = On)
-ptx_line_stats_filename gpgpu_inst_stats.txt # Output file for PTX source line statistics.
-save_embedded_ptx                      0 # saves ptx files embedded in binary as <n>.ptx
-keep                                   0 # keep intermediate files created by GPGPU-Sim when interfacing with external programs
-gpgpu_ptx_save_converted_ptxplus                    0 # Saved converted ptxplus to a file
-ptx_opcode_latency_int         4,13,4,5,145 # Opcode latencies for integers <ADD,MAX,MUL,MAD,DIV>Default 1,1,19,25,145
-ptx_opcode_latency_fp          4,13,4,5,39 # Opcode latencies for single precision floating points <ADD,MAX,MUL,MAD,DIV>Default 1,1,1,1,30
-ptx_opcode_latency_dp         8,19,8,8,330 # Opcode latencies for double precision floating points <ADD,MAX,MUL,MAD,DIV>Default 8,8,8,8,335
-ptx_opcode_initiation_int            1,2,2,1,8 # Opcode initiation intervals for integers <ADD,MAX,MUL,MAD,DIV>Default 1,1,4,4,32
-ptx_opcode_initiation_fp            1,2,1,1,4 # Opcode initiation intervals for single precision floating points <ADD,MAX,MUL,MAD,DIV>Default 1,1,1,1,5
-ptx_opcode_initiation_dp         8,16,8,8,130 # Opcode initiation intervals for double precision floating points <ADD,MAX,MUL,MAD,DIV>Default 8,8,8,8,130
DRAM Timing Options:
nbk                                    16 # number of banks
CCD                                     2 # column to column delay
RRD                                     6 # minimal delay between activation of rows in different banks
RCD                                    12 # row to column delay
RAS                                    28 # time needed to activate row
RP                                     12 # time needed to precharge (deactivate) row
RC                                     40 # row cycle time
CDLR                                    5 # switching from write to read (changes tWTR)
WR                                     12 # last data-in to row precharge
CL                                     12 # CAS latency
WL                                      4 # Write latency
nbkgrp                                  4 # number of bank groups
CCDL                                    3 # column to column delay between accesses to different bank groups
RTPL                                    2 # read to precharge delay between accesses to different bank groups
Total number of memory sub partition = 12
addr_dec_mask[CHIP]  = 0000000000000000 	high:64 low:0
addr_dec_mask[BK]    = 000000000000e100 	high:16 low:8
addr_dec_mask[ROW]   = 000000000fff0000 	high:28 low:16
addr_dec_mask[COL]   = 0000000000001eff 	high:13 low:0
addr_dec_mask[BURST] = 000000000000003f 	high:6 low:0
sub_partition_id_mask = 0000000000000100
GPGPU-Sim uArch: clock freqs: 700000000.000000:700000000.000000:700000000.000000:924000000.000000
GPGPU-Sim uArch: clock periods: 0.00000000142857142857:0.00000000142857142857:0.00000000142857142857:0.00000000108225108225
*** Initializing Memory Statistics ***
GPGPU-Sim uArch: interconnect node map (shaderID+MemID to icntID)
GPGPU-Sim uArch: Memory nodes ID start from index: 15
GPGPU-Sim uArch:    0   1   2   3   4
GPGPU-Sim uArch:    5   6   7   8   9
GPGPU-Sim uArch:   10  11  12  13  14
GPGPU-Sim uArch:   15  16  17  18  19
GPGPU-Sim uArch:   20  21  22  23  24
GPGPU-Sim uArch:   25  26
GPGPU-Sim uArch: interconnect node reverse map (icntID to shaderID+MemID)
GPGPU-Sim uArch: Memory nodes start from ID: 15
GPGPU-Sim uArch:    0   1   2   3   4
GPGPU-Sim uArch:    5   6   7   8   9
GPGPU-Sim uArch:   10  11  12  13  14
GPGPU-Sim uArch:   15  16  17  18  19
GPGPU-Sim uArch:   20  21  22  23  24
GPGPU-Sim uArch:   25  26
316bcbff5f8f022bb22b20bb4721e93e  /sciclone/data20/adwait/applications/benchmarks/CUDA/RAY/gpgpu_ptx_sim__RAY
GPGPU-Sim uArch: performance model initialization complete.
GPGPU-Sim PTX: __cudaRegisterFatBinary, fat_cubin_handle = 1, filename=rayTracing.cu
self exe links to: /sciclone/data20/adwait/applications/benchmarks/CUDA/RAY/gpgpu_ptx_sim__RAY
Running md5sum using "md5sum /sciclone/data20/adwait/applications/benchmarks/CUDA/RAY/gpgpu_ptx_sim__RAY "
Parsing file _cuobjdump_complete_output_gRdWIZ
######### cuobjdump parser ########
## Adding new section ELF
Adding arch: sm_20
Adding identifier: rayTracing.cu
## Adding new section PTX
Adding ptx filename: _cuobjdump_1.ptx
Adding arch: sm_20
Adding identifier: rayTracing.cu
Done parsing!!!
GPGPU-Sim PTX: __cudaRegisterFunction _Z6renderPjP4Nodejjff : hostFun 0x0x40ce13, fat_cubin_handle = 1
GPGPU-Sim PTX: allocating stack frame region for .param "__cudaretf__Zmi6float3S_" from 0x0 to 0xc
GPGPU-Sim PTX: allocating stack frame region for .param "__cudaparmf1__Zmi6float3S_" from 0xc to 0x18
GPGPU-Sim PTX: allocating stack frame region for .param "__cudaparmf2__Zmi6float3S_" from 0x18 to 0x24
GPGPU-Sim PTX: allocating stack frame region for .param "__cudaretf__Z9normalize6float3" from 0x0 to 0xc
GPGPU-Sim PTX: allocating stack frame region for .param "__cudaparmf1__Z9normalize6float3" from 0xc to 0x18
GPGPU-Sim PTX: allocating stack frame region for .param "__cudaretf__Z18intersectionSphere5Rayon6float3f" from 0x0 to 0x4
GPGPU-Sim PTX: allocating stack frame region for .param "__cudaparmf1__Z18intersectionSphere5Rayon6float3f" from 0x4 to 0x1c
GPGPU-Sim PTX: allocating stack frame region for .param "__cudaparmf2__Z18intersectionSphere5Rayon6float3f" from 0x1c to 0x28
GPGPU-Sim PTX: allocating stack frame region for .param "__cudaparmf3__Z18intersectionSphere5Rayon6float3f" from 0x28 to 0x2c
GPGPU-Sim PTX: allocating stack frame region for .param "__cudaretf__Z16intersectionPlan5Rayon6float3S0_" from 0x0 to 0x4
GPGPU-Sim PTX: allocating stack frame region for .param "__cudaparmf1__Z16intersectionPlan5Rayon6float3S0_" from 0x4 to 0x1c
GPGPU-Sim PTX: allocating stack frame region for .param "__cudaparmf2__Z16intersectionPlan5Rayon6float3S0_" from 0x1c to 0x28
GPGPU-Sim PTX: allocating stack frame region for .param "__cudaparmf3__Z16intersectionPlan5Rayon6float3S0_" from 0x28 to 0x34
GPGPU-Sim PTX: allocating stack frame region for .param "__cudaretf__Z10getNormale6float3S_" from 0x0 to 0xc
GPGPU-Sim PTX: allocating stack frame region for .param "__cudaparmf1__Z10getNormale6float3S_" from 0xc to 0x18
GPGPU-Sim PTX: allocating stack frame region for .param "__cudaparmf2__Z10getNormale6float3S_" from 0x18 to 0x24
GPGPU-Sim PTX: allocating stack frame region for .param "__cudaretf__Z11getNormaleP6float3" from 0x0 to 0xc
GPGPU-Sim PTX: allocating stack frame region for .param "__cudaparmf1__Z11getNormaleP6float3" from 0xc to 0x18
GPGPU-Sim PTX: allocating stack frame region for .param "__cudaretf__Z14rgbaFloatToInt6float4" from 0x0 to 0x4
GPGPU-Sim PTX: allocating stack frame region for .param "__cudaparmf1__Z14rgbaFloatToInt6float4" from 0x4 to 0x14
GPGPU-Sim PTX: allocating stack frame region for .param "__cudaretf__Z12notShadowRayP4Node6float3S1_f" from 0x0 to 0x4
GPGPU-Sim PTX: allocating stack frame region for .param "__cudaparmf1__Z12notShadowRayP4Node6float3S1_f" from 0x4 to 0xc
GPGPU-Sim PTX: allocating stack frame region for .param "__cudaparmf2__Z12notShadowRayP4Node6float3S1_f" from 0xc to 0x18
GPGPU-Sim PTX: allocating stack frame region for .param "__cudaparmf3__Z12notShadowRayP4Node6float3S1_f" from 0x18 to 0x24
GPGPU-Sim PTX: allocating stack frame region for .param "__cudaparmf4__Z12notShadowRayP4Node6float3S1_f" from 0x24 to 0x28
GPGPU-Sim PTX: allocating stack frame region for .param "__cudaretf__Z15float2int_pow20f" from 0x0 to 0x4
GPGPU-Sim PTX: allocating stack frame region for .param "__cudaparmf1__Z15float2int_pow20f" from 0x4 to 0x8
GPGPU-Sim PTX: allocating stack frame region for .param "__cudaretf__Z15float2int_pow50f" from 0x0 to 0x4
GPGPU-Sim PTX: allocating stack frame region for .param "__cudaparmf1__Z15float2int_pow50f" from 0x4 to 0x8
GPGPU-Sim PTX: allocating stack frame region for .param "__cudaparmf1__ZN4dim3C1Ejjj" from 0x0 to 0x8
GPGPU-Sim PTX: allocating stack frame region for .param "__cudaparmf2__ZN4dim3C1Ejjj" from 0x8 to 0xc
GPGPU-Sim PTX: allocating stack frame region for .param "__cudaparmf3__ZN4dim3C1Ejjj" from 0xc to 0x10
GPGPU-Sim PTX: allocating stack frame region for .param "__cudaparmf4__ZN4dim3C1Ejjj" from 0x10 to 0x14
GPGPU-Sim PTX: instruction assembly for function '_Zmi6float3S_'...   done.
GPGPU-Sim PTX: finding reconvergence points for '_Zmi6float3S_'...
GPGPU-Sim PTX: Finding dominators for '_Zmi6float3S_'...
GPGPU-Sim PTX: Finding immediate dominators for '_Zmi6float3S_'...
GPGPU-Sim PTX: Finding postdominators for '_Zmi6float3S_'...
GPGPU-Sim PTX: Finding immediate postdominators for '_Zmi6float3S_'...
GPGPU-Sim PTX: pre-decoding instructions for '_Zmi6float3S_'...
GPGPU-Sim PTX: reconvergence points for _Zmi6float3S_...
GPGPU-Sim PTX: ... end of reconvergence points for _Zmi6float3S_
GPGPU-Sim PTX: ... done pre-decoding instructions for '_Zmi6float3S_'.
GPGPU-Sim PTX: instruction assembly for function '_Z9normalize6float3'...   done.
GPGPU-Sim PTX: finding reconvergence points for '_Z9normalize6float3'...
GPGPU-Sim PTX: Finding dominators for '_Z9normalize6float3'...
GPGPU-Sim PTX: Finding immediate dominators for '_Z9normalize6float3'...
GPGPU-Sim PTX: Finding postdominators for '_Z9normalize6float3'...
GPGPU-Sim PTX: Finding immediate postdominators for '_Z9normalize6float3'...
GPGPU-Sim PTX: pre-decoding instructions for '_Z9normalize6float3'...
GPGPU-Sim PTX: reconvergence points for _Z9normalize6float3...
GPGPU-Sim PTX: ... end of reconvergence points for _Z9normalize6float3
GPGPU-Sim PTX: ... done pre-decoding instructions for '_Z9normalize6float3'.
GPGPU-Sim PTX: instruction assembly for function '_Z18intersectionSphere5Rayon6float3f'...   done.
GPGPU-Sim PTX: finding reconvergence points for '_Z18intersectionSphere5Rayon6float3f'...
GPGPU-Sim PTX: Finding dominators for '_Z18intersectionSphere5Rayon6float3f'...
GPGPU-Sim PTX: Finding immediate dominators for '_Z18intersectionSphere5Rayon6float3f'...
GPGPU-Sim PTX: Finding postdominators for '_Z18intersectionSphere5Rayon6float3f'...
GPGPU-Sim PTX: Finding immediate postdominators for '_Z18intersectionSphere5Rayon6float3f'...
GPGPU-Sim PTX: pre-decoding instructions for '_Z18intersectionSphere5Rayon6float3f'...
GPGPU-Sim PTX: reconvergence points for _Z18intersectionSphere5Rayon6float3f...
GPGPU-Sim PTX:  1 (potential) branch divergence @  PC=0x250 (_1.ptx:173) @%p2 bra $Lt_2_3074;
GPGPU-Sim PTX:    immediate post dominator      @  PC=0x2c0 (_1.ptx:193) mov.f32 %f39, %f32;
GPGPU-Sim PTX:  2 (potential) branch divergence @  PC=0x260 (_1.ptx:175) bra.uni $Lt_2_2818;
GPGPU-Sim PTX:    immediate post dominator      @  PC=0x2c0 (_1.ptx:193) mov.f32 %f39, %f32;
GPGPU-Sim PTX:  3 (potential) branch divergence @  PC=0x280 (_1.ptx:180) @!%p3 bra $Lt_2_3586;
GPGPU-Sim PTX:    immediate post dominator      @  PC=0x2c0 (_1.ptx:193) mov.f32 %f39, %f32;
GPGPU-Sim PTX:  4 (potential) branch divergence @  PC=0x290 (_1.ptx:182) bra.uni $Lt_2_3330;
GPGPU-Sim PTX:    immediate post dominator      @  PC=0x2c0 (_1.ptx:193) mov.f32 %f39, %f32;
GPGPU-Sim PTX: ... end of reconvergence points for _Z18intersectionSphere5Rayon6float3f
GPGPU-Sim PTX: ... done pre-decoding instructions for '_Z18intersectionSphere5Rayon6float3f'.
GPGPU-Sim PTX: instruction assembly for function '_Z16intersectionPlan5Rayon6float3S0_'...   done.
GPGPU-Sim PTX: finding reconvergence points for '_Z16intersectionPlan5Rayon6float3S0_'...
GPGPU-Sim PTX: Finding dominators for '_Z16intersectionPlan5Rayon6float3S0_'...
GPGPU-Sim PTX: Finding immediate dominators for '_Z16intersectionPlan5Rayon6float3S0_'...
GPGPU-Sim PTX: Finding postdominators for '_Z16intersectionPlan5Rayon6float3S0_'...
GPGPU-Sim PTX: Finding immediate postdominators for '_Z16intersectionPlan5Rayon6float3S0_'...
GPGPU-Sim PTX: pre-decoding instructions for '_Z16intersectionPlan5Rayon6float3S0_'...
GPGPU-Sim PTX: reconvergence points for _Z16intersectionPlan5Rayon6float3S0_...
GPGPU-Sim PTX:  1 (potential) branch divergence @  PC=0x320 (_1.ptx:214) @!%p1 bra $Lt_3_2050;
GPGPU-Sim PTX:    immediate post dominator      @  PC=0x368 (_1.ptx:227) mov.f32 %f14, %f9;
GPGPU-Sim PTX:  2 (potential) branch divergence @  PC=0x330 (_1.ptx:216) bra.uni $Lt_3_1794;
GPGPU-Sim PTX:    immediate post dominator      @  PC=0x368 (_1.ptx:227) mov.f32 %f14, %f9;
GPGPU-Sim PTX: ... end of reconvergence points for _Z16intersectionPlan5Rayon6float3S0_
GPGPU-Sim PTX: ... done pre-decoding instructions for '_Z16intersectionPlan5Rayon6float3S0_'.
GPGPU-Sim PTX: instruction assembly for function '_Z10getNormale6float3S_'...   done.
GPGPU-Sim PTX: finding reconvergence points for '_Z10getNormale6float3S_'...
GPGPU-Sim PTX: Finding dominators for '_Z10getNormale6float3S_'...
GPGPU-Sim PTX: Finding immediate dominators for '_Z10getNormale6float3S_'...
GPGPU-Sim PTX: Finding postdominators for '_Z10getNormale6float3S_'...
GPGPU-Sim PTX: Finding immediate postdominators for '_Z10getNormale6float3S_'...
GPGPU-Sim PTX: pre-decoding instructions for '_Z10getNormale6float3S_'...
GPGPU-Sim PTX: reconvergence points for _Z10getNormale6float3S_...
GPGPU-Sim PTX: ... end of reconvergence points for _Z10getNormale6float3S_
GPGPU-Sim PTX: ... done pre-decoding instructions for '_Z10getNormale6float3S_'.
GPGPU-Sim PTX: instruction assembly for function '_Z11getNormaleP6float3'...   done.
GPGPU-Sim PTX: finding reconvergence points for '_Z11getNormaleP6float3'...
GPGPU-Sim PTX: Finding dominators for '_Z11getNormaleP6float3'...
GPGPU-Sim PTX: Finding immediate dominators for '_Z11getNormaleP6float3'...
GPGPU-Sim PTX: Finding postdominators for '_Z11getNormaleP6float3'...
GPGPU-Sim PTX: Finding immediate postdominators for '_Z11getNormaleP6float3'...
GPGPU-Sim PTX: pre-decoding instructions for '_Z11getNormaleP6float3'...
GPGPU-Sim PTX: reconvergence points for _Z11getNormaleP6float3...
GPGPU-Sim PTX: ... end of reconvergence points for _Z11getNormaleP6float3
GPGPU-Sim PTX: ... done pre-decoding instructions for '_Z11getNormaleP6float3'.
GPGPU-Sim PTX: instruction assembly for function '_Z14rgbaFloatToInt6float4'...   done.
GPGPU-Sim PTX: finding reconvergence points for '_Z14rgbaFloatToInt6float4'...
GPGPU-Sim PTX: Finding dominators for '_Z14rgbaFloatToInt6float4'...
GPGPU-Sim PTX: Finding immediate dominators for '_Z14rgbaFloatToInt6float4'...
GPGPU-Sim PTX: Finding postdominators for '_Z14rgbaFloatToInt6float4'...
GPGPU-Sim PTX: Finding immediate postdominators for '_Z14rgbaFloatToInt6float4'...
GPGPU-Sim PTX: pre-decoding instructions for '_Z14rgbaFloatToInt6float4'...
GPGPU-Sim PTX: reconvergence points for _Z14rgbaFloatToInt6float4...
GPGPU-Sim PTX: ... end of reconvergence points for _Z14rgbaFloatToInt6float4
GPGPU-Sim PTX: ... done pre-decoding instructions for '_Z14rgbaFloatToInt6float4'.
GPGPU-Sim PTX: allocating global region for "cnode" from 0x100 to 0x1a0 (global memory space)
GPGPU-Sim PTX: instruction assembly for function '_Z12notShadowRayP4Node6float3S1_f'...   done.
GPGPU-Sim PTX: finding reconvergence points for '_Z12notShadowRayP4Node6float3S1_f'...
GPGPU-Sim PTX: Finding dominators for '_Z12notShadowRayP4Node6float3S1_f'...
GPGPU-Sim PTX: Finding immediate dominators for '_Z12notShadowRayP4Node6float3S1_f'...
GPGPU-Sim PTX: Finding postdominators for '_Z12notShadowRayP4Node6float3S1_f'...
GPGPU-Sim PTX: Finding immediate postdominators for '_Z12notShadowRayP4Node6float3S1_f'...
GPGPU-Sim PTX: pre-decoding instructions for '_Z12notShadowRayP4Node6float3S1_f'...
GPGPU-Sim PTX: reconvergence points for _Z12notShadowRayP4Node6float3S1_f...
GPGPU-Sim PTX:  1 (potential) branch divergence @  PC=0x638 (_1.ptx:364) @%p1 bra $Lt_7_8450;
GPGPU-Sim PTX:    immediate post dominator      @  PC=0x828 (_1.ptx:441) mov.f32 %f58, 0f00000000;    // 0
GPGPU-Sim PTX:  2 (potential) branch divergence @  PC=0x658 (_1.ptx:369) @!%p2 bra $Lt_7_8962;
GPGPU-Sim PTX:    immediate post dominator      @  PC=0x6b8 (_1.ptx:385) mov.f32 %f28, %f20;
GPGPU-Sim PTX:  3 (potential) branch divergence @  PC=0x668 (_1.ptx:371) bra.uni $Lt_7_8706;
GPGPU-Sim PTX:    immediate post dominator      @  PC=0x6b8 (_1.ptx:385) mov.f32 %f28, %f20;
GPGPU-Sim PTX:  4 (potential) branch divergence @  PC=0x6c0 (_1.ptx:386) bra.uni $Lt_7_8194;
GPGPU-Sim PTX:    immediate post dominator      @  PC=0x828 (_1.ptx:441) mov.f32 %f58, 0f00000000;    // 0
GPGPU-Sim PTX:  5 (potential) branch divergence @  PC=0x7b0 (_1.ptx:418) @%p5 bra $Lt_7_9474;
GPGPU-Sim PTX:    immediate post dominator      @  PC=0x820 (_1.ptx:438) mov.f32 %f28, %f51;
GPGPU-Sim PTX:  6 (potential) branch divergence @  PC=0x7c0 (_1.ptx:420) bra.uni $Lt_7_9730;
GPGPU-Sim PTX:    immediate post dominator      @  PC=0x820 (_1.ptx:438) mov.f32 %f28, %f51;
GPGPU-Sim PTX:  7 (potential) branch divergence @  PC=0x7e0 (_1.ptx:425) @!%p6 bra $Lt_7_9986;
GPGPU-Sim PTX:    immediate post dominator      @  PC=0x820 (_1.ptx:438) mov.f32 %f28, %f51;
GPGPU-Sim PTX:  8 (potential) branch divergence @  PC=0x7f0 (_1.ptx:427) bra.uni $Lt_7_9730;
GPGPU-Sim PTX:    immediate post dominator      @  PC=0x820 (_1.ptx:438) mov.f32 %f28, %f51;
GPGPU-Sim PTX:  9 (potential) branch divergence @  PC=0x838 (_1.ptx:443) @!%p7 bra $Lt_7_10242;
GPGPU-Sim PTX:    immediate post dominator      @  PC=0x8e8 (_1.ptx:468) add.s32 %r1, %r1, 1;
GPGPU-Sim PTX: 10 (potential) branch divergence @  PC=0x8d8 (_1.ptx:463) @!%p8 bra $Lt_7_10242;
GPGPU-Sim PTX:    immediate post dominator      @  PC=0x8e8 (_1.ptx:468) add.s32 %r1, %r1, 1;
GPGPU-Sim PTX: 11 (potential) branch divergence @  PC=0x908 (_1.ptx:472) @%p9 bra $Lt_7_10754;
GPGPU-Sim PTX:    immediate post dominator      @  PC=0x960 (_1.ptx:486) selp.s32 %r10, 1, 0, %p11;
GPGPU-Sim PTX: 12 (potential) branch divergence @  PC=0x930 (_1.ptx:477) @%p10 bra $L_7_7170;
GPGPU-Sim PTX:    immediate post dominator      @  PC=0x960 (_1.ptx:486) selp.s32 %r10, 1, 0, %p11;
GPGPU-Sim PTX: 13 (potential) branch divergence @  PC=0x938 (_1.ptx:478) bra.uni $L_7_7938;
GPGPU-Sim PTX:    immediate post dominator      @  PC=0x960 (_1.ptx:486) selp.s32 %r10, 1, 0, %p11;
GPGPU-Sim PTX: ... end of reconvergence points for _Z12notShadowRayP4Node6float3S1_f
GPGPU-Sim PTX: ... done pre-decoding instructions for '_Z12notShadowRayP4Node6float3S1_f'.
GPGPU-Sim PTX: instruction assembly for function '_Z15float2int_pow20f'...   done.
GPGPU-Sim PTX: finding reconvergence points for '_Z15float2int_pow20f'...
GPGPU-Sim PTX: Finding dominators for '_Z15float2int_pow20f'...
GPGPU-Sim PTX: Finding immediate dominators for '_Z15float2int_pow20f'...
GPGPU-Sim PTX: Finding postdominators for '_Z15float2int_pow20f'...
GPGPU-Sim PTX: Finding immediate postdominators for '_Z15float2int_pow20f'...
GPGPU-Sim PTX: pre-decoding instructions for '_Z15float2int_pow20f'...
GPGPU-Sim PTX: reconvergence points for _Z15float2int_pow20f...
GPGPU-Sim PTX: ... end of reconvergence points for _Z15float2int_pow20f
GPGPU-Sim PTX: ... done pre-decoding instructions for '_Z15float2int_pow20f'.
GPGPU-Sim PTX: instruction assembly for function '_Z15float2int_pow50f'...   done.
GPGPU-Sim PTX: finding reconvergence points for '_Z15float2int_pow50f'...
GPGPU-Sim PTX: Finding dominators for '_Z15float2int_pow50f'...
GPGPU-Sim PTX: Finding immediate dominators for '_Z15float2int_pow50f'...
GPGPU-Sim PTX: Finding postdominators for '_Z15float2int_pow50f'...
GPGPU-Sim PTX: Finding immediate postdominators for '_Z15float2int_pow50f'...
GPGPU-Sim PTX: pre-decoding instructions for '_Z15float2int_pow50f'...
GPGPU-Sim PTX: reconvergence points for _Z15float2int_pow50f...
GPGPU-Sim PTX: ... end of reconvergence points for _Z15float2int_pow50f
GPGPU-Sim PTX: ... done pre-decoding instructions for '_Z15float2int_pow50f'.
GPGPU-Sim PTX: allocating constant region for "MView" from 0x200 to 0x230 (global memory space) 1
GPGPU-Sim PTX: allocating stack frame region for .local "__cuda___cuda_local_var_35463_9_non_const_pile_32240" from 0x0 to 0x50
GPGPU-Sim PTX: instruction assembly for function '_Z6renderPjP4Nodejjff'...   done.
GPGPU-Sim PTX: finding reconvergence points for '_Z6renderPjP4Nodejjff'...
GPGPU-Sim PTX: Finding dominators for '_Z6renderPjP4Nodejjff'...
GPGPU-Sim PTX: Finding immediate dominators for '_Z6renderPjP4Nodejjff'...
GPGPU-Sim PTX: Finding postdominators for '_Z6renderPjP4Nodejjff'...
GPGPU-Sim PTX: Finding immediate postdominators for '_Z6renderPjP4Nodejjff'...
GPGPU-Sim PTX: pre-decoding instructions for '_Z6renderPjP4Nodejjff'...
GPGPU-Sim PTX: reconvergence points for _Z6renderPjP4Nodejjff...
GPGPU-Sim PTX:  1 (potential) branch divergence @  PC=0xdb0 (_1.ptx:663) @%p1 bra $Lt_10_44034;
GPGPU-Sim PTX:    immediate post dominator      @  PC=0x2370 (_1.ptx:1495) exit;
GPGPU-Sim PTX:  2 (potential) branch divergence @  PC=0x1028 (_1.ptx:751) @%p2 bra $Lt_10_45570;
GPGPU-Sim PTX:    immediate post dominator      @  PC=0x11b8 (_1.ptx:815) mov.f32 %f108, 0f00000000;   // 0
GPGPU-Sim PTX:  3 (potential) branch divergence @  PC=0x1048 (_1.ptx:756) @!%p3 bra $Lt_10_46082;
GPGPU-Sim PTX:    immediate post dominator      @  PC=0x1090 (_1.ptx:769) mov.f32 %f87, %f82;
GPGPU-Sim PTX:  4 (potential) branch divergence @  PC=0x1058 (_1.ptx:758) bra.uni $Lt_10_45826;
GPGPU-Sim PTX:    immediate post dominator      @  PC=0x1090 (_1.ptx:769) mov.f32 %f87, %f82;
GPGPU-Sim PTX:  5 (potential) branch divergence @  PC=0x1098 (_1.ptx:770) bra.uni $Lt_10_45314;
GPGPU-Sim PTX:    immediate post dominator      @  PC=0x11b8 (_1.ptx:815) mov.f32 %f108, 0f00000000;   // 0
GPGPU-Sim PTX:  6 (potential) branch divergence @  PC=0x1140 (_1.ptx:793) @%p6 bra $Lt_10_46594;
GPGPU-Sim PTX:    immediate post dominator      @  PC=0x11b0 (_1.ptx:813) mov.f32 %f87, %f101;
GPGPU-Sim PTX:  7 (potential) branch divergence @  PC=0x1150 (_1.ptx:795) bra.uni $Lt_10_46850;
GPGPU-Sim PTX:    immediate post dominator      @  PC=0x11b0 (_1.ptx:813) mov.f32 %f87, %f101;
GPGPU-Sim PTX:  8 (potential) branch divergence @  PC=0x1170 (_1.ptx:800) @!%p7 bra $Lt_10_47106;
GPGPU-Sim PTX:    immediate post dominator      @  PC=0x11b0 (_1.ptx:813) mov.f32 %f87, %f101;
GPGPU-Sim PTX:  9 (potential) branch divergence @  PC=0x1180 (_1.ptx:802) bra.uni $Lt_10_46850;
GPGPU-Sim PTX:    immediate post dominator      @  PC=0x11b0 (_1.ptx:813) mov.f32 %f87, %f101;
GPGPU-Sim PTX: 10 (potential) branch divergence @  PC=0x11f8 (_1.ptx:823) @%p8 bra $Lt_10_47362;
GPGPU-Sim PTX:    immediate post dominator      @  PC=0x1210 (_1.ptx:829) add.s32 %r25, %r25, 1;
GPGPU-Sim PTX: 11 (potential) branch divergence @  PC=0x1230 (_1.ptx:833) @%p9 bra $Lt_10_45058;
GPGPU-Sim PTX:    immediate post dominator      @  PC=0x1238 (_1.ptx:834) mov.f32 %f109, 0f00000000;   // 0
GPGPU-Sim PTX: 12 (potential) branch divergence @  PC=0x1280 (_1.ptx:843) @%p10 bra $Lt_10_48130;
GPGPU-Sim PTX:    immediate post dominator      @  PC=0x2140 (_1.ptx:1416) add.s32 %r23, %r23, 1;
GPGPU-Sim PTX: 13 (potential) branch divergence @  PC=0x1330 (_1.ptx:868) @%p11 bra $Lt_10_48898;
GPGPU-Sim PTX:    immediate post dominator      @  PC=0x13b8 (_1.ptx:888) sub.f32 %f136, %f21, %f119;
GPGPU-Sim PTX: 14 (potential) branch divergence @  PC=0x1350 (_1.ptx:873) bra.uni $Lt_10_48642;
GPGPU-Sim PTX:    immediate post dominator      @  PC=0x13b8 (_1.ptx:888) sub.f32 %f136, %f21, %f119;
GPGPU-Sim PTX: 15 (potential) branch divergence @  PC=0x1430 (_1.ptx:903) @!%p12 bra $Lt_10_49410;
GPGPU-Sim PTX:    immediate post dominator      @  PC=0x1470 (_1.ptx:915) mov.f32 %f153, 0f3d4ccccd;   // 0.05
GPGPU-Sim PTX: 16 (potential) branch divergence @  PC=0x1450 (_1.ptx:908) bra.uni $Lt_10_49154;
GPGPU-Sim PTX:    immediate post dominator      @  PC=0x1470 (_1.ptx:915) mov.f32 %f153, 0f3d4ccccd;   // 0.05
GPGPU-Sim PTX: 17 (potential) branch divergence @  PC=0x1578 (_1.ptx:949) @!%p13 bra $Lt_10_58114;
GPGPU-Sim PTX:    immediate post dominator      @  PC=0x2080 (_1.ptx:1388) add.f32 %f399, %f126, %f126;
GPGPU-Sim PTX: 18 (potential) branch divergence @  PC=0x15c0 (_1.ptx:961) @%p14 bra $Lt_10_49922;
GPGPU-Sim PTX:    immediate post dominator      @  PC=0x17b0 (_1.ptx:1039) mov.f32 %f221, 0f00000000;   // 0
GPGPU-Sim PTX: 19 (potential) branch divergence @  PC=0x15e0 (_1.ptx:966) @!%p15 bra $Lt_10_50434;
GPGPU-Sim PTX:    immediate post dominator      @  PC=0x1638 (_1.ptx:982) mov.f32 %f190, %f183;
GPGPU-Sim PTX: 20 (potential) branch divergence @  PC=0x15f0 (_1.ptx:968) bra.uni $Lt_10_50178;
GPGPU-Sim PTX:    immediate post dominator      @  PC=0x1638 (_1.ptx:982) mov.f32 %f190, %f183;
GPGPU-Sim PTX: 21 (potential) branch divergence @  PC=0x1640 (_1.ptx:983) bra.uni $Lt_10_49666;
GPGPU-Sim PTX:    immediate post dominator      @  PC=0x17b0 (_1.ptx:1039) mov.f32 %f221, 0f00000000;   // 0
GPGPU-Sim PTX: 22 (potential) branch divergence @  PC=0x1738 (_1.ptx:1016) @%p18 bra $Lt_10_50946;
GPGPU-Sim PTX:    immediate post dominator      @  PC=0x17a8 (_1.ptx:1036) mov.f32 %f190, %f214;
GPGPU-Sim PTX: 23 (potential) branch divergence @  PC=0x1748 (_1.ptx:1018) bra.uni $Lt_10_51202;
GPGPU-Sim PTX:    immediate post dominator      @  PC=0x17a8 (_1.ptx:1036) mov.f32 %f190, %f214;
GPGPU-Sim PTX: 24 (potential) branch divergence @  PC=0x1768 (_1.ptx:1023) @!%p19 bra $Lt_10_51458;
GPGPU-Sim PTX:    immediate post dominator      @  PC=0x17a8 (_1.ptx:1036) mov.f32 %f190, %f214;
GPGPU-Sim PTX: 25 (potential) branch divergence @  PC=0x1778 (_1.ptx:1025) bra.uni $Lt_10_51202;
GPGPU-Sim PTX:    immediate post dominator      @  PC=0x17a8 (_1.ptx:1036) mov.f32 %f190, %f214;
GPGPU-Sim PTX: 26 (potential) branch divergence @  PC=0x17c0 (_1.ptx:1041) @!%p20 bra $Lt_10_58370;
GPGPU-Sim PTX:    immediate post dominator      @  PC=0x1828 (_1.ptx:1057) add.s32 %r50, %r50, 1;
GPGPU-Sim PTX: 27 (potential) branch divergence @  PC=0x1818 (_1.ptx:1052) @!%p21 bra $Lt_10_58370;
GPGPU-Sim PTX:    immediate post dominator      @  PC=0x1828 (_1.ptx:1057) add.s32 %r50, %r50, 1;
GPGPU-Sim PTX: 28 (potential) branch divergence @  PC=0x1848 (_1.ptx:1061) @%p22 bra $Lt_10_58882;
GPGPU-Sim PTX:    immediate post dominator      @  PC=0x1880 (_1.ptx:1071) @!%p23 bra $Lt_10_58114;
GPGPU-Sim PTX: 29 (potential) branch divergence @  PC=0x1860 (_1.ptx:1064) @%p23 bra $L_10_42498;
GPGPU-Sim PTX:    immediate post dominator      @  PC=0x1880 (_1.ptx:1071) @!%p23 bra $Lt_10_58114;
GPGPU-Sim PTX: 30 (potential) branch divergence @  PC=0x1868 (_1.ptx:1065) bra.uni $L_10_43266;
GPGPU-Sim PTX:    immediate post dominator      @  PC=0x1880 (_1.ptx:1071) @!%p23 bra $Lt_10_58114;
GPGPU-Sim PTX: 31 (potential) branch divergence @  PC=0x1880 (_1.ptx:1071) @!%p23 bra $Lt_10_58114;
GPGPU-Sim PTX:    immediate post dominator      @  PC=0x2080 (_1.ptx:1388) add.f32 %f399, %f126, %f126;
GPGPU-Sim PTX: 32 (potential) branch divergence @  PC=0x19c8 (_1.ptx:1115) @!%p24 bra $Lt_10_51714;
GPGPU-Sim PTX:    immediate post dominator      @  PC=0x2040 (_1.ptx:1375) mov.f32 %f394, 0f3f4ccccd;   // 0.8
GPGPU-Sim PTX: 33 (potential) branch divergence @  PC=0x19d8 (_1.ptx:1118) bra.uni $LDWendi___isnanf_192_1;
GPGPU-Sim PTX:    immediate post dominator      @  PC=0x2040 (_1.ptx:1375) mov.f32 %f394, 0f3f4ccccd;   // 0.8
GPGPU-Sim PTX: 34 (potential) branch divergence @  PC=0x19f8 (_1.ptx:1124) @!%p25 bra $Lt_10_7682;
GPGPU-Sim PTX:    immediate post dominator      @  PC=0x2040 (_1.ptx:1375) mov.f32 %f394, 0f3f4ccccd;   // 0.8
GPGPU-Sim PTX: 35 (potential) branch divergence @  PC=0x1a00 (_1.ptx:1125) bra.uni $Lt_10_7938;
GPGPU-Sim PTX:    immediate post dominator      @  PC=0x1a20 (_1.ptx:1133) mov.f32 %f272, 0f7f800000;   // ((1.0F)/(0.0F))
GPGPU-Sim PTX: 36 (potential) branch divergence @  PC=0x1a18 (_1.ptx:1130) bra.uni $LDWendi___isnanf_192_1;
GPGPU-Sim PTX:    immediate post dominator      @  PC=0x2040 (_1.ptx:1375) mov.f32 %f394, 0f3f4ccccd;   // 0.8
GPGPU-Sim PTX: 37 (potential) branch divergence @  PC=0x1a30 (_1.ptx:1135) @!%p26 bra $Lt_10_52226;
GPGPU-Sim PTX:    immediate post dominator      @  PC=0x2040 (_1.ptx:1375) mov.f32 %f394, 0f3f4ccccd;   // 0.8
GPGPU-Sim PTX: 38 (potential) branch divergence @  PC=0x1a40 (_1.ptx:1138) bra.uni $LDWendi___isnanf_192_1;
GPGPU-Sim PTX:    immediate post dominator      @  PC=0x2040 (_1.ptx:1375) mov.f32 %f394, 0f3f4ccccd;   // 0.8
GPGPU-Sim PTX: 39 (potential) branch divergence @  PC=0x1a58 (_1.ptx:1142) @!%p27 bra $Lt_10_52738;
GPGPU-Sim PTX:    immediate post dominator      @  PC=0x2040 (_1.ptx:1375) mov.f32 %f394, 0f3f4ccccd;   // 0.8
GPGPU-Sim PTX: 40 (potential) branch divergence @  PC=0x1ab8 (_1.ptx:1155) bra.uni $LDWendi___isnanf_192_1;
GPGPU-Sim PTX:    immediate post dominator      @  PC=0x2040 (_1.ptx:1375) mov.f32 %f394, 0f3f4ccccd;   // 0.8
GPGPU-Sim PTX: 41 (potential) branch divergence @  PC=0x1ad0 (_1.ptx:1159) @!%p29 bra $Lt_10_53250;
GPGPU-Sim PTX:    immediate post dominator      @  PC=0x2040 (_1.ptx:1375) mov.f32 %f394, 0f3f4ccccd;   // 0.8
GPGPU-Sim PTX: 42 (potential) branch divergence @  PC=0x1b20 (_1.ptx:1170) @!%p30 bra $Lt_10_53762;
GPGPU-Sim PTX:    immediate post dominator      @  PC=0x1b40 (_1.ptx:1177) mov.f32 %f268, %f284;
GPGPU-Sim PTX: 43 (potential) branch divergence @  PC=0x1b48 (_1.ptx:1178) bra.uni $LDWendi___isnanf_192_1;
GPGPU-Sim PTX:    immediate post dominator      @  PC=0x2040 (_1.ptx:1375) mov.f32 %f394, 0f3f4ccccd;   // 0.8
GPGPU-Sim PTX: 44 (potential) branch divergence @  PC=0x1b60 (_1.ptx:1183) @!%p31 bra $Lt_10_59394;
GPGPU-Sim PTX:    immediate post dominator      @  PC=0x2040 (_1.ptx:1375) mov.f32 %f394, 0f3f4ccccd;   // 0.8
GPGPU-Sim PTX: 45 (potential) branch divergence @  PC=0x1b88 (_1.ptx:1188) @!%p32 bra $Lt_10_59394;
GPGPU-Sim PTX:    immediate post dominator      @  PC=0x2040 (_1.ptx:1375) mov.f32 %f394, 0f3f4ccccd;   // 0.8
GPGPU-Sim PTX: 46 (potential) branch divergence @  PC=0x1ba0 (_1.ptx:1192) bra.uni $LDWendi___isnanf_192_1;
GPGPU-Sim PTX:    immediate post dominator      @  PC=0x2040 (_1.ptx:1375) mov.f32 %f394, 0f3f4ccccd;   // 0.8
GPGPU-Sim PTX: 47 (potential) branch divergence @  PC=0x1bd8 (_1.ptx:1202) @%p33 bra $Lt_10_54530;
GPGPU-Sim PTX:    immediate post dominator      @  PC=0x1c20 (_1.ptx:1216) sub.s32 %r64, %r64, 127;
GPGPU-Sim PTX: 48 (potential) branch divergence @  PC=0x1c10 (_1.ptx:1211) bra.uni $Lt_10_54274;
GPGPU-Sim PTX:    immediate post dominator      @  PC=0x1c20 (_1.ptx:1216) sub.s32 %r64, %r64, 127;
GPGPU-Sim PTX: 49 (potential) branch divergence @  PC=0x1c58 (_1.ptx:1224) @!%p34 bra $Lt_10_54786;
GPGPU-Sim PTX:    immediate post dominator      @  PC=0x1c78 (_1.ptx:1232) mov.f32 %f302, 0fbf800000;   // -1
GPGPU-Sim PTX: 50 (potential) branch divergence @  PC=0x1eb0 (_1.ptx:1312) @%p35 bra $Lt_10_55298;
GPGPU-Sim PTX:    immediate post dominator      @  PC=0x1ed8 (_1.ptx:1321) mov.f32 %f367, %f365;
GPGPU-Sim PTX: 51 (potential) branch divergence @  PC=0x1f98 (_1.ptx:1346) @!%p38 bra $Lt_10_55810;
GPGPU-Sim PTX:    immediate post dominator      @  PC=0x1fa8 (_1.ptx:1351) mov.f32 %f284, %f386;
GPGPU-Sim PTX: 52 (potential) branch divergence @  PC=0x2018 (_1.ptx:1365) @%p39 bra $Lt_10_56322;
GPGPU-Sim PTX:    immediate post dominator      @  PC=0x2038 (_1.ptx:1372) mov.f32 %f268, %f284;
GPGPU-Sim PTX: 53 (potential) branch divergence @  PC=0x2158 (_1.ptx:1419) @%p40 bra $L_10_42242;
GPGPU-Sim PTX:    immediate post dominator      @  PC=0x2170 (_1.ptx:1424) sub.s32 %r86, %r24, 1;
GPGPU-Sim PTX: 54 (potential) branch divergence @  PC=0x2168 (_1.ptx:1421) @%p41 bra $L_10_41474;
GPGPU-Sim PTX:    immediate post dominator      @  PC=0x2170 (_1.ptx:1424) sub.s32 %r86, %r24, 1;
GPGPU-Sim PTX: 55 (potential) branch divergence @  PC=0x2190 (_1.ptx:1428) @%p42 bra $Lt_10_56834;
GPGPU-Sim PTX:    immediate post dominator      @  PC=0x2288 (_1.ptx:1464) ld.global.u32 %r92, [%rd4+0];
GPGPU-Sim PTX: 56 (potential) branch divergence @  PC=0x2280 (_1.ptx:1461) @%p43 bra $Lt_10_57346;
GPGPU-Sim PTX:    immediate post dominator      @  PC=0x2288 (_1.ptx:1464) ld.global.u32 %r92, [%rd4+0];
GPGPU-Sim PTX: ... end of reconvergence points for _Z6renderPjP4Nodejjff
GPGPU-Sim PTX: ... done pre-decoding instructions for '_Z6renderPjP4Nodejjff'.
GPGPU-Sim PTX: instruction assembly for function '_ZN4dim3C1Ejjj'...   done.
GPGPU-Sim PTX: finding reconvergence points for '_ZN4dim3C1Ejjj'...
GPGPU-Sim PTX: Finding dominators for '_ZN4dim3C1Ejjj'...
GPGPU-Sim PTX: Finding immediate dominators for '_ZN4dim3C1Ejjj'...
GPGPU-Sim PTX: Finding postdominators for '_ZN4dim3C1Ejjj'...
GPGPU-Sim PTX: Finding immediate postdominators for '_ZN4dim3C1Ejjj'...
GPGPU-Sim PTX: pre-decoding instructions for '_ZN4dim3C1Ejjj'...
GPGPU-Sim PTX: reconvergence points for _ZN4dim3C1Ejjj...
GPGPU-Sim PTX: ... end of reconvergence points for _ZN4dim3C1Ejjj
GPGPU-Sim PTX: ... done pre-decoding instructions for '_ZN4dim3C1Ejjj'.
GPGPU-Sim PTX: finished parsing EMBEDDED .ptx file _1.ptx
Adding _cuobjdump_1.ptx with cubin handle 1
GPGPU-Sim PTX: extracting embedded .ptx to temporary file "_ptx_Up1Kqk"
Running: cat _ptx_Up1Kqk | sed 's/.version 1.5/.version 1.4/' | sed 's/, texmode_independent//' | sed 's/\(\.extern \.const\[1\] .b8 \w\+\)\[\]/\1\[1\]/' | sed 's/const\[.\]/const\[0\]/g' > _ptx2_gVU9yF
GPGPU-Sim PTX: generating ptxinfo using "$CUDA_INSTALL_PATH/bin/ptxas --gpu-name=sm_20 -v _ptx2_gVU9yF --output-file  /dev/null 2> _ptx_Up1Kqkinfo"
GPGPU-Sim PTX: Kernel '_Z6renderPjP4Nodejjff' : regs=45, lmem=4, smem=0, cmem=180
GPGPU-Sim PTX: removing ptxinfo using "rm -f _ptx_Up1Kqk _ptx2_gVU9yF _ptx_Up1Kqkinfo"
GPGPU-Sim PTX: loading globals with explicit initializers... 
GPGPU-Sim PTX: finished loading globals (0 bytes total).
GPGPU-Sim PTX: loading constants with explicit initializers...  done.
GPGPU-Sim PTX: __cudaRegisterVar: hostVar = 0x62fda0; deviceAddress = MView; deviceName = MView
GPGPU-Sim PTX: __cudaRegisterVar: Registering const memory space of 48 bytes
GPGPU-Sim PTX registering constant MView (48 bytes) to name mapping
GPGPU-Sim PTX: __cudaRegisterVar: hostVar = 0x62fde0; deviceAddress = cnode; deviceName = cnode
GPGPU-Sim PTX: __cudaRegisterVar: Registering const memory space of 160 bytes
GPGPU-Sim PTX registering constant cnode (160 bytes) to name mapping
GPGPU-Sim PTX: cudaMemcpyToSymbol: symbol = 0x62fde0
GPGPU-Sim PTX: starting gpgpu_ptx_sim_memcpy_symbol with hostVar 0x0x62fde0
GPGPU-Sim PTX: gpgpu_ptx_sim_memcpy_symbol: Found PTX symbol w/ hostVar=0x62fde0
GPGPU-Sim PTX: gpgpu_ptx_sim_memcpy_symbol: copying const memory 160 bytes  to  symbol cnode+0 @0x100 ...
GPGPU-Sim PTX: cudaMemcpyToSymbol: symbol = 0x62fda0
GPGPU-Sim PTX: starting gpgpu_ptx_sim_memcpy_symbol with hostVar 0x0x62fda0
GPGPU-Sim PTX: gpgpu_ptx_sim_memcpy_symbol: Found PTX symbol w/ hostVar=0x62fda0
GPGPU-Sim PTX: gpgpu_ptx_sim_memcpy_symbol: copying const memory 48 bytes  to  symbol MView+0 @0x200 ...

GPGPU-Sim PTX: cudaLaunch for 0x0x40ce13 (mode=performance simulation) on stream 0
GPGPU-Sim PTX: pushing kernel '_Z6renderPjP4Nodejjff' to stream 0, gridDim= (16,32,1) blockDim = (16,8,1) 
kernel '_Z6renderPjP4Nodejjff' transfer to GPU hardware scheduler
GPGPU-Sim uArch: Shader 1 bind to kernel 1 '_Z6renderPjP4Nodejjff'
GPGPU-Sim uArch: CTA/core = 5, limited by: regs
GPGPU-Sim uArch: core:  1, cta: 0 initialized @(1,0)
GPGPU-Sim uArch: Shader 2 bind to kernel 1 '_Z6renderPjP4Nodejjff'
GPGPU-Sim uArch: core:  2, cta: 0 initialized @(1,0)
GPGPU-Sim uArch: Shader 3 bind to kernel 1 '_Z6renderPjP4Nodejjff'
GPGPU-Sim uArch: core:  3, cta: 0 initialized @(1,0)
GPGPU-Sim uArch: Shader 4 bind to kernel 1 '_Z6renderPjP4Nodejjff'
GPGPU-Sim uArch: core:  4, cta: 0 initialized @(1,0)
GPGPU-Sim uArch: Shader 5 bind to kernel 1 '_Z6renderPjP4Nodejjff'
GPGPU-Sim uArch: core:  5, cta: 0 initialized @(1,0)
GPGPU-Sim uArch: Shader 6 bind to kernel 1 '_Z6renderPjP4Nodejjff'
GPGPU-Sim uArch: core:  6, cta: 0 initialized @(1,0)
GPGPU-Sim uArch: Shader 7 bind to kernel 1 '_Z6renderPjP4Nodejjff'
GPGPU-Sim uArch: core:  7, cta: 0 initialized @(1,0)
GPGPU-Sim uArch: Shader 8 bind to kernel 1 '_Z6renderPjP4Nodejjff'
GPGPU-Sim uArch: core:  8, cta: 0 initialized @(1,0)
GPGPU-Sim uArch: Shader 9 bind to kernel 1 '_Z6renderPjP4Nodejjff'
GPGPU-Sim uArch: core:  9, cta: 0 initialized @(1,0)
GPGPU-Sim uArch: Shader 10 bind to kernel 1 '_Z6renderPjP4Nodejjff'
GPGPU-Sim uArch: core: 10, cta: 0 initialized @(1,0)
GPGPU-Sim uArch: Shader 11 bind to kernel 1 '_Z6renderPjP4Nodejjff'
GPGPU-Sim uArch: core: 11, cta: 0 initialized @(1,0)
GPGPU-Sim uArch: Shader 12 bind to kernel 1 '_Z6renderPjP4Nodejjff'
GPGPU-Sim uArch: core: 12, cta: 0 initialized @(1,0)
GPGPU-Sim uArch: Shader 13 bind to kernel 1 '_Z6renderPjP4Nodejjff'
GPGPU-Sim uArch: core: 13, cta: 0 initialized @(1,0)
GPGPU-Sim uArch: Shader 14 bind to kernel 1 '_Z6renderPjP4Nodejjff'
GPGPU-Sim uArch: core: 14, cta: 0 initialized @(1,0)
GPGPU-Sim uArch: Shader 0 bind to kernel 1 '_Z6renderPjP4Nodejjff'
GPGPU-Sim uArch: core:  0, cta: 0 initialized @(1,0)
GPGPU-Sim uArch: core:  1, cta: 1 initialized @(2,0)
GPGPU-Sim uArch: core:  2, cta: 1 initialized @(2,0)
GPGPU-Sim uArch: core:  3, cta: 1 initialized @(2,0)
GPGPU-Sim uArch: core:  4, cta: 1 initialized @(2,0)
GPGPU-Sim uArch: core:  5, cta: 1 initialized @(2,0)
GPGPU-Sim uArch: core:  6, cta: 1 initialized @(2,0)
GPGPU-Sim uArch: core:  7, cta: 1 initialized @(2,0)
GPGPU-Sim uArch: core:  8, cta: 1 initialized @(2,0)
GPGPU-Sim uArch: core:  9, cta: 1 initialized @(2,0)
GPGPU-Sim uArch: core: 10, cta: 1 initialized @(2,0)
GPGPU-Sim uArch: core: 11, cta: 1 initialized @(2,0)
GPGPU-Sim uArch: core: 12, cta: 1 initialized @(2,0)
GPGPU-Sim uArch: core: 13, cta: 1 initialized @(2,0)
GPGPU-Sim uArch: core: 14, cta: 1 initialized @(2,0)
GPGPU-Sim uArch: core:  0, cta: 1 initialized @(2,0)
GPGPU-Sim uArch: core:  1, cta: 2 initialized @(3,0)
GPGPU-Sim uArch: core:  2, cta: 2 initialized @(3,0)
GPGPU-Sim uArch: core:  3, cta: 2 initialized @(3,0)
GPGPU-Sim uArch: core:  4, cta: 2 initialized @(3,0)
GPGPU-Sim uArch: core:  5, cta: 2 initialized @(3,0)
GPGPU-Sim uArch: core:  6, cta: 2 initialized @(3,0)
GPGPU-Sim uArch: core:  7, cta: 2 initialized @(3,0)
GPGPU-Sim uArch: core:  8, cta: 2 initialized @(3,0)
GPGPU-Sim uArch: core:  9, cta: 2 initialized @(3,0)
GPGPU-Sim uArch: core: 10, cta: 2 initialized @(3,0)
GPGPU-Sim uArch: core: 11, cta: 2 initialized @(3,0)
GPGPU-Sim uArch: core: 12, cta: 2 initialized @(3,0)
GPGPU-Sim uArch: core: 13, cta: 2 initialized @(3,0)
GPGPU-Sim uArch: core: 14, cta: 2 initialized @(3,0)
GPGPU-Sim uArch: core:  0, cta: 2 initialized @(3,0)
GPGPU-Sim uArch: core:  1, cta: 3 initialized @(4,0)
GPGPU-Sim uArch: core:  2, cta: 3 initialized @(4,0)
GPGPU-Sim uArch: core:  3, cta: 3 initialized @(4,0)
GPGPU-Sim uArch: core:  4, cta: 3 initialized @(4,0)
GPGPU-Sim uArch: core:  5, cta: 3 initialized @(4,0)
GPGPU-Sim uArch: core:  6, cta: 3 initialized @(4,0)
GPGPU-Sim uArch: core:  7, cta: 3 initialized @(4,0)
GPGPU-Sim uArch: core:  8, cta: 3 initialized @(4,0)
GPGPU-Sim uArch: core:  9, cta: 3 initialized @(4,0)
GPGPU-Sim uArch: core: 10, cta: 3 initialized @(4,0)
GPGPU-Sim uArch: core: 11, cta: 3 initialized @(4,0)
GPGPU-Sim uArch: core: 12, cta: 3 initialized @(4,0)
GPGPU-Sim uArch: core: 13, cta: 3 initialized @(4,0)
GPGPU-Sim uArch: core: 14, cta: 3 initialized @(4,0)
GPGPU-Sim uArch: core:  0, cta: 3 initialized @(4,0)
GPGPU-Sim uArch: core:  1, cta: 4 initialized @(5,0)
GPGPU-Sim uArch: core:  2, cta: 4 initialized @(5,0)
GPGPU-Sim uArch: core:  3, cta: 4 initialized @(5,0)
GPGPU-Sim uArch: core:  4, cta: 4 initialized @(5,0)
GPGPU-Sim uArch: core:  5, cta: 4 initialized @(5,0)
GPGPU-Sim uArch: core:  6, cta: 4 initialized @(5,0)
GPGPU-Sim uArch: core:  7, cta: 4 initialized @(5,0)
GPGPU-Sim uArch: core:  8, cta: 4 initialized @(5,0)
GPGPU-Sim uArch: core:  9, cta: 4 initialized @(5,0)
GPGPU-Sim uArch: core: 10, cta: 4 initialized @(5,0)
GPGPU-Sim uArch: core: 11, cta: 4 initialized @(5,0)
GPGPU-Sim uArch: core: 12, cta: 4 initialized @(5,0)
GPGPU-Sim uArch: core: 13, cta: 4 initialized @(5,0)
GPGPU-Sim uArch: core: 14, cta: 4 initialized @(5,0)
GPGPU-Sim uArch: core:  0, cta: 4 initialized @(5,0)
GPGPU-Sim uArch: cycles simulated: 500  inst.: 36032 (ipc=72.1) sim_rate=18016 (inst/sec) elapsed = 0:0:00:02 / Sun Feb 28 21:41:30 2016
GPGPU-Sim uArch: cycles simulated: 1000  inst.: 61056 (ipc=61.1) sim_rate=20352 (inst/sec) elapsed = 0:0:00:03 / Sun Feb 28 21:41:31 2016
GPGPU-Sim PTX: 100000 instructions simulated : ctaid=(9,0,0) tid=(15,1,0)
GPGPU-Sim uArch: cycles simulated: 3500  inst.: 170464 (ipc=48.7) sim_rate=42616 (inst/sec) elapsed = 0:0:00:04 / Sun Feb 28 21:41:32 2016
GPGPU-Sim PTX: 200000 instructions simulated : ctaid=(2,0,0) tid=(15,5,0)
GPGPU-Sim PTX: 300000 instructions simulated : ctaid=(7,0,0) tid=(15,5,0)
GPGPU-Sim PTX: 400000 instructions simulated : ctaid=(4,0,0) tid=(15,1,0)
GPGPU-Sim uArch: cycles simulated: 5500  inst.: 401600 (ipc=73.0) sim_rate=80320 (inst/sec) elapsed = 0:0:00:05 / Sun Feb 28 21:41:33 2016
GPGPU-Sim PTX: 500000 instructions simulated : ctaid=(0,3,0) tid=(15,5,0)
GPGPU-Sim PTX: 600000 instructions simulated : ctaid=(1,1,0) tid=(15,5,0)
GPGPU-Sim PTX: 700000 instructions simulated : ctaid=(0,0,0) tid=(15,7,0)
GPGPU-Sim PTX: 800000 instructions simulated : ctaid=(2,3,0) tid=(15,7,0)
GPGPU-Sim uArch: cycles simulated: 7500  inst.: 840928 (ipc=112.1) sim_rate=140154 (inst/sec) elapsed = 0:0:00:06 / Sun Feb 28 21:41:34 2016
GPGPU-Sim PTX: 900000 instructions simulated : ctaid=(3,2,0) tid=(15,7,0)
GPGPU-Sim PTX: 1000000 instructions simulated : ctaid=(0,4,0) tid=(15,3,0)
GPGPU-Sim PTX: 1100000 instructions simulated : ctaid=(2,4,0) tid=(15,3,0)
GPGPU-Sim uArch: cycles simulated: 8500  inst.: 1127840 (ipc=132.7) sim_rate=161120 (inst/sec) elapsed = 0:0:00:07 / Sun Feb 28 21:41:35 2016
GPGPU-Sim PTX: 1200000 instructions simulated : ctaid=(12,3,0) tid=(15,5,0)
GPGPU-Sim PTX: 1300000 instructions simulated : ctaid=(4,1,0) tid=(15,1,0)
GPGPU-Sim PTX: 1400000 instructions simulated : ctaid=(3,2,0) tid=(15,7,0)
GPGPU-Sim PTX: 1500000 instructions simulated : ctaid=(11,2,0) tid=(15,3,0)
GPGPU-Sim PTX: 1600000 instructions simulated : ctaid=(10,1,0) tid=(15,7,0)
GPGPU-Sim PTX: 1700000 instructions simulated : ctaid=(6,2,0) tid=(15,5,0)
GPGPU-Sim PTX: 1800000 instructions simulated : ctaid=(0,0,0) tid=(15,7,0)
GPGPU-Sim PTX: 1900000 instructions simulated : ctaid=(7,0,0) tid=(15,5,0)
GPGPU-Sim uArch: cycles simulated: 10000  inst.: 1930432 (ipc=193.0) sim_rate=241304 (inst/sec) elapsed = 0:0:00:08 / Sun Feb 28 21:41:36 2016
GPGPU-Sim PTX: 2000000 instructions simulated : ctaid=(6,2,0) tid=(15,1,0)
GPGPU-Sim PTX: 2100000 instructions simulated : ctaid=(15,1,0) tid=(15,7,0)
GPGPU-Sim PTX: 2200000 instructions simulated : ctaid=(11,1,0) tid=(15,5,0)
GPGPU-Sim PTX: 2300000 instructions simulated : ctaid=(12,1,0) tid=(15,1,0)
GPGPU-Sim uArch: cycles simulated: 10500  inst.: 2282176 (ipc=217.4) sim_rate=253575 (inst/sec) elapsed = 0:0:00:09 / Sun Feb 28 21:41:37 2016
GPGPU-Sim PTX: 2400000 instructions simulated : ctaid=(8,2,0) tid=(15,5,0)
GPGPU-Sim PTX: 2500000 instructions simulated : ctaid=(15,1,0) tid=(15,5,0)
GPGPU-Sim PTX: 2600000 instructions simulated : ctaid=(11,2,0) tid=(15,1,0)
GPGPU-Sim PTX: 2700000 instructions simulated : ctaid=(9,2,0) tid=(15,3,0)
GPGPU-Sim PTX: 2800000 instructions simulated : ctaid=(10,3,0) tid=(15,1,0)
GPGPU-Sim PTX: 2900000 instructions simulated : ctaid=(15,1,0) tid=(15,3,0)
GPGPU-Sim PTX: 3000000 instructions simulated : ctaid=(1,4,0) tid=(15,5,0)
GPGPU-Sim uArch: cycles simulated: 11500  inst.: 3000032 (ipc=260.9) sim_rate=300003 (inst/sec) elapsed = 0:0:00:10 / Sun Feb 28 21:41:38 2016
GPGPU-Sim PTX: 3100000 instructions simulated : ctaid=(14,1,0) tid=(15,5,0)
GPGPU-Sim PTX: 3200000 instructions simulated : ctaid=(10,3,0) tid=(15,7,0)
GPGPU-Sim PTX: 3300000 instructions simulated : ctaid=(5,3,0) tid=(15,3,0)
GPGPU-Sim PTX: 3400000 instructions simulated : ctaid=(7,4,0) tid=(15,5,0)
GPGPU-Sim PTX: 3500000 instructions simulated : ctaid=(10,2,0) tid=(15,3,0)
GPGPU-Sim uArch: cycles simulated: 12500  inst.: 3461312 (ipc=276.9) sim_rate=314664 (inst/sec) elapsed = 0:0:00:11 / Sun Feb 28 21:41:39 2016
GPGPU-Sim PTX: 3600000 instructions simulated : ctaid=(3,0,0) tid=(15,3,0)
GPGPU-Sim PTX: 3700000 instructions simulated : ctaid=(9,0,0) tid=(15,5,0)
GPGPU-Sim PTX: 3800000 instructions simulated : ctaid=(12,2,0) tid=(15,5,0)
GPGPU-Sim PTX: 3900000 instructions simulated : ctaid=(1,3,0) tid=(15,1,0)
GPGPU-Sim PTX: 4000000 instructions simulated : ctaid=(0,2,0) tid=(15,1,0)
GPGPU-Sim PTX: 4100000 instructions simulated : ctaid=(15,1,0) tid=(15,3,0)
GPGPU-Sim uArch: cycles simulated: 14000  inst.: 4010848 (ipc=286.5) sim_rate=334237 (inst/sec) elapsed = 0:0:00:12 / Sun Feb 28 21:41:40 2016
GPGPU-Sim PTX: 4200000 instructions simulated : ctaid=(11,1,0) tid=(15,3,0)
GPGPU-Sim PTX: 4300000 instructions simulated : ctaid=(14,1,0) tid=(15,1,0)
GPGPU-Sim PTX: 4400000 instructions simulated : ctaid=(0,2,0) tid=(15,5,0)
GPGPU-Sim PTX: 4500000 instructions simulated : ctaid=(15,3,0) tid=(15,3,0)
GPGPU-Sim PTX: 4600000 instructions simulated : ctaid=(13,0,0) tid=(8,0,0)
GPGPU-Sim uArch: cycles simulated: 15500  inst.: 4533133 (ipc=292.5) sim_rate=348702 (inst/sec) elapsed = 0:0:00:13 / Sun Feb 28 21:41:41 2016
GPGPU-Sim PTX: 4700000 instructions simulated : ctaid=(15,1,0) tid=(13,1,0)
GPGPU-Sim PTX: 4800000 instructions simulated : ctaid=(14,0,0) tid=(15,4,0)
GPGPU-Sim PTX: 4900000 instructions simulated : ctaid=(0,4,0) tid=(15,4,0)
GPGPU-Sim PTX: 5000000 instructions simulated : ctaid=(15,2,0) tid=(15,2,0)
GPGPU-Sim PTX: 5100000 instructions simulated : ctaid=(13,0,0) tid=(15,0,0)
GPGPU-Sim PTX: 5200000 instructions simulated : ctaid=(10,1,0) tid=(15,2,0)
GPGPU-Sim PTX: 5300000 instructions simulated : ctaid=(11,2,0) tid=(15,4,0)
GPGPU-Sim PTX: 5400000 instructions simulated : ctaid=(10,1,0) tid=(15,6,0)
GPGPU-Sim uArch: cycles simulated: 16500  inst.: 5315091 (ipc=322.1) sim_rate=379649 (inst/sec) elapsed = 0:0:00:14 / Sun Feb 28 21:41:42 2016
GPGPU-Sim PTX: 5500000 instructions simulated : ctaid=(1,0,0) tid=(12,5,0)
GPGPU-Sim PTX: 5600000 instructions simulated : ctaid=(11,0,0) tid=(1,7,0)
GPGPU-Sim PTX: 5700000 instructions simulated : ctaid=(10,4,0) tid=(1,4,0)
GPGPU-Sim PTX: 5800000 instructions simulated : ctaid=(6,3,0) tid=(15,6,0)
GPGPU-Sim PTX: 5900000 instructions simulated : ctaid=(9,0,0) tid=(12,0,0)
GPGPU-Sim PTX: 6000000 instructions simulated : ctaid=(1,4,0) tid=(15,2,0)
GPGPU-Sim uArch: cycles simulated: 17500  inst.: 5897092 (ipc=337.0) sim_rate=393139 (inst/sec) elapsed = 0:0:00:15 / Sun Feb 28 21:41:43 2016
GPGPU-Sim PTX: 6100000 instructions simulated : ctaid=(11,0,0) tid=(11,7,0)
GPGPU-Sim PTX: 6200000 instructions simulated : ctaid=(8,3,0) tid=(11,7,0)
GPGPU-Sim PTX: 6300000 instructions simulated : ctaid=(1,2,0) tid=(11,5,0)
GPGPU-Sim PTX: 6400000 instructions simulated : ctaid=(11,2,0) tid=(11,1,0)
GPGPU-Sim uArch: cycles simulated: 19000  inst.: 6237956 (ipc=328.3) sim_rate=389872 (inst/sec) elapsed = 0:0:00:16 / Sun Feb 28 21:41:44 2016
GPGPU-Sim PTX: 6500000 instructions simulated : ctaid=(13,3,0) tid=(11,6,0)
GPGPU-Sim PTX: 6600000 instructions simulated : ctaid=(2,3,0) tid=(11,1,0)
GPGPU-Sim PTX: 6700000 instructions simulated : ctaid=(10,1,0) tid=(11,5,0)
GPGPU-Sim PTX: 6800000 instructions simulated : ctaid=(1,3,0) tid=(11,7,0)
GPGPU-Sim PTX: 6900000 instructions simulated : ctaid=(15,0,0) tid=(11,7,0)
GPGPU-Sim uArch: cycles simulated: 20500  inst.: 6722212 (ipc=327.9) sim_rate=395424 (inst/sec) elapsed = 0:0:00:17 / Sun Feb 28 21:41:45 2016
GPGPU-Sim PTX: 7000000 instructions simulated : ctaid=(9,1,0) tid=(11,1,0)
GPGPU-Sim PTX: 7100000 instructions simulated : ctaid=(11,3,0) tid=(11,1,0)
GPGPU-Sim PTX: 7200000 instructions simulated : ctaid=(8,3,0) tid=(11,3,0)
GPGPU-Sim uArch: cycles simulated: 21500  inst.: 7079460 (ipc=329.3) sim_rate=393303 (inst/sec) elapsed = 0:0:00:18 / Sun Feb 28 21:41:46 2016
GPGPU-Sim PTX: 7300000 instructions simulated : ctaid=(5,3,0) tid=(11,5,0)
GPGPU-Sim PTX: 7400000 instructions simulated : ctaid=(15,1,0) tid=(11,7,0)
GPGPU-Sim PTX: 7500000 instructions simulated : ctaid=(12,2,0) tid=(11,7,0)
GPGPU-Sim PTX: 7600000 instructions simulated : ctaid=(10,0,0) tid=(11,3,0)
GPGPU-Sim PTX: 7700000 instructions simulated : ctaid=(3,0,0) tid=(11,7,0)
GPGPU-Sim PTX: 7800000 instructions simulated : ctaid=(12,0,0) tid=(11,7,0)
GPGPU-Sim uArch: cycles simulated: 23000  inst.: 7595172 (ipc=330.2) sim_rate=399745 (inst/sec) elapsed = 0:0:00:19 / Sun Feb 28 21:41:47 2016
GPGPU-Sim PTX: 7900000 instructions simulated : ctaid=(12,2,0) tid=(11,3,0)
GPGPU-Sim PTX: 8000000 instructions simulated : ctaid=(7,3,0) tid=(11,1,0)
GPGPU-Sim PTX: 8100000 instructions simulated : ctaid=(8,3,0) tid=(11,3,0)
GPGPU-Sim PTX: 8200000 instructions simulated : ctaid=(10,4,0) tid=(11,1,0)
GPGPU-Sim PTX: 8300000 instructions simulated : ctaid=(2,1,0) tid=(11,5,0)
GPGPU-Sim uArch: cycles simulated: 24500  inst.: 8137732 (ipc=332.2) sim_rate=406886 (inst/sec) elapsed = 0:0:00:20 / Sun Feb 28 21:41:48 2016
GPGPU-Sim PTX: 8400000 instructions simulated : ctaid=(2,1,0) tid=(11,7,0)
GPGPU-Sim PTX: 8500000 instructions simulated : ctaid=(0,3,0) tid=(11,1,0)
GPGPU-Sim PTX: 8600000 instructions simulated : ctaid=(4,1,0) tid=(0,1,0)
GPGPU-Sim PTX: 8700000 instructions simulated : ctaid=(3,0,0) tid=(5,4,0)
GPGPU-Sim PTX: 8800000 instructions simulated : ctaid=(7,2,0) tid=(1,0,0)
GPGPU-Sim PTX: 8900000 instructions simulated : ctaid=(5,0,0) tid=(11,3,0)
GPGPU-Sim PTX: 9000000 instructions simulated : ctaid=(8,0,0) tid=(11,1,0)
GPGPU-Sim PTX: 9100000 instructions simulated : ctaid=(8,3,0) tid=(1,2,0)
GPGPU-Sim uArch: cycles simulated: 25500  inst.: 8928324 (ipc=350.1) sim_rate=425158 (inst/sec) elapsed = 0:0:00:21 / Sun Feb 28 21:41:49 2016
GPGPU-Sim PTX: 9200000 instructions simulated : ctaid=(3,2,0) tid=(3,7,0)
GPGPU-Sim PTX: 9300000 instructions simulated : ctaid=(14,1,0) tid=(1,0,0)
GPGPU-Sim PTX: 9400000 instructions simulated : ctaid=(14,0,0) tid=(11,1,0)
GPGPU-Sim PTX: 9500000 instructions simulated : ctaid=(15,1,0) tid=(10,1,0)
GPGPU-Sim PTX: 9600000 instructions simulated : ctaid=(5,1,0) tid=(3,7,0)
GPGPU-Sim PTX: 9700000 instructions simulated : ctaid=(14,0,0) tid=(10,1,0)
GPGPU-Sim PTX: 9800000 instructions simulated : ctaid=(3,0,0) tid=(9,4,0)
GPGPU-Sim PTX: 9900000 instructions simulated : ctaid=(13,3,0) tid=(15,3,0)
GPGPU-Sim uArch: cycles simulated: 26500  inst.: 9670663 (ipc=364.9) sim_rate=439575 (inst/sec) elapsed = 0:0:00:22 / Sun Feb 28 21:41:50 2016
GPGPU-Sim PTX: 10000000 instructions simulated : ctaid=(15,3,0) tid=(14,7,0)
GPGPU-Sim PTX: 10100000 instructions simulated : ctaid=(10,0,0) tid=(3,5,0)
GPGPU-Sim PTX: 10200000 instructions simulated : ctaid=(7,0,0) tid=(3,3,0)
GPGPU-Sim PTX: 10300000 instructions simulated : ctaid=(14,3,0) tid=(4,3,0)
GPGPU-Sim uArch: cycles simulated: 28000  inst.: 10083732 (ipc=360.1) sim_rate=438423 (inst/sec) elapsed = 0:0:00:23 / Sun Feb 28 21:41:51 2016
GPGPU-Sim PTX: 10400000 instructions simulated : ctaid=(12,3,0) tid=(8,5,0)
GPGPU-Sim uArch: Shader 6 finished CTA #2 (28170,0), 4 CTAs running
GPGPU-Sim uArch: core:  6, cta: 2 initialized @(28171,0)
GPGPU-Sim uArch: Shader 14 finished CTA #0 (28324,0), 4 CTAs running
GPGPU-Sim uArch: core: 14, cta: 0 initialized @(28325,0)
GPGPU-Sim uArch: Shader 6 finished CTA #3 (28331,0), 4 CTAs running
GPGPU-Sim uArch: core:  6, cta: 3 initialized @(28332,0)
GPGPU-Sim uArch: Shader 6 finished CTA #4 (28359,0), 4 CTAs running
GPGPU-Sim uArch: core:  6, cta: 4 initialized @(28360,0)
GPGPU-Sim uArch: Shader 9 finished CTA #3 (28360,0), 4 CTAs running
GPGPU-Sim uArch: core:  9, cta: 3 initialized @(28361,0)
GPGPU-Sim PTX: 10500000 instructions simulated : ctaid=(7,2,0) tid=(13,5,0)
GPGPU-Sim uArch: Shader 1 finished CTA #0 (28372,0), 4 CTAs running
GPGPU-Sim uArch: core:  1, cta: 0 initialized @(28373,0)
GPGPU-Sim uArch: Shader 9 finished CTA #4 (28383,0), 4 CTAs running
GPGPU-Sim uArch: core:  9, cta: 4 initialized @(28384,0)
GPGPU-Sim uArch: Shader 10 finished CTA #4 (28401,0), 4 CTAs running
GPGPU-Sim uArch: core: 10, cta: 4 initialized @(28402,0)
GPGPU-Sim uArch: Shader 4 finished CTA #1 (28452,0), 4 CTAs running
GPGPU-Sim uArch: core:  4, cta: 1 initialized @(28453,0)
GPGPU-Sim uArch: Shader 7 finished CTA #3 (28461,0), 4 CTAs running
GPGPU-Sim uArch: core:  7, cta: 3 initialized @(28462,0)
GPGPU-Sim uArch: Shader 1 finished CTA #1 (28464,0), 4 CTAs running
GPGPU-Sim uArch: core:  1, cta: 1 initialized @(28465,0)
GPGPU-Sim uArch: Shader 8 finished CTA #2 (28465,0), 4 CTAs running
GPGPU-Sim uArch: core:  8, cta: 2 initialized @(28466,0)
GPGPU-Sim uArch: Shader 8 finished CTA #3 (28478,0), 4 CTAs running
GPGPU-Sim uArch: core:  8, cta: 3 initialized @(28479,0)
GPGPU-Sim uArch: Shader 7 finished CTA #4 (28482,0), 4 CTAs running
GPGPU-Sim uArch: core:  7, cta: 4 initialized @(28483,0)
GPGPU-Sim uArch: Shader 8 finished CTA #4 (28488,0), 4 CTAs running
GPGPU-Sim uArch: core:  8, cta: 4 initialized @(28489,0)
GPGPU-Sim uArch: Shader 1 finished CTA #2 (28499,0), 4 CTAs running
GPGPU-Sim uArch: core:  1, cta: 2 initialized @(28500,0)
GPGPU-Sim uArch: Shader 1 finished CTA #4 (28513,0), 4 CTAs running
GPGPU-Sim uArch: Shader 4 finished CTA #2 (28513,0), 4 CTAs running
GPGPU-Sim uArch: core:  4, cta: 2 initialized @(28514,0)
GPGPU-Sim uArch: core:  1, cta: 4 initialized @(28514,0)
GPGPU-Sim uArch: Shader 0 finished CTA #0 (28539,0), 4 CTAs running
GPGPU-Sim uArch: core:  0, cta: 0 initialized @(28540,0)
GPGPU-Sim uArch: Shader 1 finished CTA #3 (28551,0), 4 CTAs running
GPGPU-Sim uArch: core:  1, cta: 3 initialized @(28552,0)
GPGPU-Sim uArch: Shader 5 finished CTA #2 (28554,0), 4 CTAs running
GPGPU-Sim uArch: core:  5, cta: 2 initialized @(28555,0)
GPGPU-Sim uArch: Shader 0 finished CTA #1 (28661,0), 4 CTAs running
GPGPU-Sim uArch: core:  0, cta: 1 initialized @(28662,0)
GPGPU-Sim uArch: Shader 4 finished CTA #3 (28679,0), 4 CTAs running
GPGPU-Sim uArch: core:  4, cta: 3 initialized @(28680,0)
GPGPU-Sim uArch: Shader 0 finished CTA #2 (28692,0), 4 CTAs running
GPGPU-Sim uArch: core:  0, cta: 2 initialized @(28693,0)
GPGPU-Sim uArch: Shader 2 finished CTA #0 (28708,0), 4 CTAs running
GPGPU-Sim uArch: core:  2, cta: 0 initialized @(28709,0)
GPGPU-Sim uArch: Shader 4 finished CTA #4 (28710,0), 4 CTAs running
GPGPU-Sim uArch: core:  4, cta: 4 initialized @(28711,0)
GPGPU-Sim PTX: 10600000 instructions simulated : ctaid=(4,6,0) tid=(11,2,0)
GPGPU-Sim uArch: Shader 3 finished CTA #1 (28739,0), 4 CTAs running
GPGPU-Sim uArch: core:  3, cta: 1 initialized @(28740,0)
GPGPU-Sim uArch: Shader 2 finished CTA #1 (28764,0), 4 CTAs running
GPGPU-Sim uArch: core:  2, cta: 1 initialized @(28765,0)
GPGPU-Sim uArch: Shader 5 finished CTA #3 (28782,0), 4 CTAs running
GPGPU-Sim uArch: core:  5, cta: 3 initialized @(28783,0)
GPGPU-Sim uArch: Shader 3 finished CTA #0 (28816,0), 4 CTAs running
GPGPU-Sim uArch: core:  3, cta: 0 initialized @(28817,0)
GPGPU-Sim uArch: Shader 0 finished CTA #3 (28822,0), 4 CTAs running
GPGPU-Sim uArch: core:  0, cta: 3 initialized @(28823,0)
GPGPU-Sim uArch: Shader 5 finished CTA #4 (28824,0), 4 CTAs running
GPGPU-Sim uArch: core:  5, cta: 4 initialized @(28825,0)
GPGPU-Sim uArch: Shader 2 finished CTA #2 (28861,0), 4 CTAs running
GPGPU-Sim uArch: core:  2, cta: 2 initialized @(28862,0)
GPGPU-Sim uArch: Shader 3 finished CTA #2 (28862,0), 4 CTAs running
GPGPU-Sim uArch: core:  3, cta: 2 initialized @(28863,0)
GPGPU-Sim uArch: Shader 3 finished CTA #4 (28883,0), 4 CTAs running
GPGPU-Sim uArch: core:  3, cta: 4 initialized @(28884,0)
GPGPU-Sim uArch: Shader 3 finished CTA #3 (28921,0), 4 CTAs running
GPGPU-Sim uArch: core:  3, cta: 3 initialized @(28922,0)
GPGPU-Sim uArch: Shader 0 finished CTA #4 (28926,0), 4 CTAs running
GPGPU-Sim uArch: core:  0, cta: 4 initialized @(28927,0)
GPGPU-Sim uArch: Shader 2 finished CTA #4 (28927,0), 4 CTAs running
GPGPU-Sim uArch: core:  2, cta: 4 initialized @(28928,0)
GPGPU-Sim uArch: Shader 2 finished CTA #3 (28957,0), 4 CTAs running
GPGPU-Sim uArch: core:  2, cta: 3 initialized @(28958,0)
GPGPU-Sim uArch: cycles simulated: 29000  inst.: 10417857 (ipc=359.2) sim_rate=434077 (inst/sec) elapsed = 0:0:00:24 / Sun Feb 28 21:41:52 2016
GPGPU-Sim PTX: 10700000 instructions simulated : ctaid=(4,0,0) tid=(12,6,0)
GPGPU-Sim PTX: 10800000 instructions simulated : ctaid=(5,5,0) tid=(6,1,0)
GPGPU-Sim PTX: 10900000 instructions simulated : ctaid=(7,0,0) tid=(4,4,0)
GPGPU-Sim PTX: 11000000 instructions simulated : ctaid=(4,1,0) tid=(5,3,0)
GPGPU-Sim uArch: cycles simulated: 30000  inst.: 10785631 (ipc=359.5) sim_rate=431425 (inst/sec) elapsed = 0:0:00:25 / Sun Feb 28 21:41:53 2016
GPGPU-Sim PTX: 11100000 instructions simulated : ctaid=(6,4,0) tid=(11,1,0)
GPGPU-Sim PTX: 11200000 instructions simulated : ctaid=(6,6,0) tid=(6,4,0)
GPGPU-Sim PTX: 11300000 instructions simulated : ctaid=(11,5,0) tid=(0,2,0)
GPGPU-Sim PTX: 11400000 instructions simulated : ctaid=(8,4,0) tid=(11,2,0)
GPGPU-Sim PTX: 11500000 instructions simulated : ctaid=(9,5,0) tid=(2,7,0)
GPGPU-Sim uArch: cycles simulated: 31000  inst.: 11236096 (ipc=362.5) sim_rate=432157 (inst/sec) elapsed = 0:0:00:26 / Sun Feb 28 21:41:54 2016
GPGPU-Sim PTX: 11600000 instructions simulated : ctaid=(11,1,0) tid=(7,0,0)
GPGPU-Sim PTX: 11700000 instructions simulated : ctaid=(7,4,0) tid=(8,1,0)
GPGPU-Sim PTX: 11800000 instructions simulated : ctaid=(2,5,0) tid=(3,7,0)
GPGPU-Sim PTX: 11900000 instructions simulated : ctaid=(15,5,0) tid=(11,1,0)
GPGPU-Sim PTX: 12000000 instructions simulated : ctaid=(3,5,0) tid=(15,1,0)
GPGPU-Sim uArch: cycles simulated: 32000  inst.: 11748408 (ipc=367.1) sim_rate=435126 (inst/sec) elapsed = 0:0:00:27 / Sun Feb 28 21:41:55 2016
GPGPU-Sim PTX: 12100000 instructions simulated : ctaid=(6,0,0) tid=(7,2,0)
GPGPU-Sim uArch: Shader 14 finished CTA #2 (32228,0), 4 CTAs running
GPGPU-Sim uArch: core: 14, cta: 2 initialized @(32229,0)
GPGPU-Sim PTX: 12200000 instructions simulated : ctaid=(7,3,0) tid=(4,4,0)
GPGPU-Sim uArch: Shader 7 finished CTA #2 (32273,0), 4 CTAs running
GPGPU-Sim uArch: core:  7, cta: 2 initialized @(32274,0)
GPGPU-Sim PTX: 12300000 instructions simulated : ctaid=(2,6,0) tid=(12,0,0)
GPGPU-Sim PTX: 12400000 instructions simulated : ctaid=(11,4,0) tid=(9,6,0)
GPGPU-Sim PTX: 12500000 instructions simulated : ctaid=(10,1,0) tid=(13,1,0)
GPGPU-Sim PTX: 12600000 instructions simulated : ctaid=(8,4,0) tid=(9,7,0)
GPGPU-Sim uArch: cycles simulated: 33000  inst.: 12341320 (ipc=374.0) sim_rate=440761 (inst/sec) elapsed = 0:0:00:28 / Sun Feb 28 21:41:56 2016
GPGPU-Sim PTX: 12700000 instructions simulated : ctaid=(1,5,0) tid=(13,3,0)
GPGPU-Sim PTX: 12800000 instructions simulated : ctaid=(11,4,0) tid=(9,7,0)
GPGPU-Sim PTX: 12900000 instructions simulated : ctaid=(13,4,0) tid=(1,4,0)
GPGPU-Sim PTX: 13000000 instructions simulated : ctaid=(9,1,0) tid=(3,7,0)
GPGPU-Sim PTX: 13100000 instructions simulated : ctaid=(7,5,0) tid=(7,1,0)
GPGPU-Sim PTX: 13200000 instructions simulated : ctaid=(15,4,0) tid=(11,1,0)
GPGPU-Sim uArch: cycles simulated: 34000  inst.: 12903279 (ipc=379.5) sim_rate=444940 (inst/sec) elapsed = 0:0:00:29 / Sun Feb 28 21:41:57 2016
GPGPU-Sim PTX: 13300000 instructions simulated : ctaid=(13,6,0) tid=(1,6,0)
GPGPU-Sim PTX: 13400000 instructions simulated : ctaid=(12,5,0) tid=(5,6,0)
GPGPU-Sim PTX: 13500000 instructions simulated : ctaid=(11,5,0) tid=(13,0,0)
GPGPU-Sim PTX: 13600000 instructions simulated : ctaid=(3,6,0) tid=(1,7,0)
GPGPU-Sim PTX: 13700000 instructions simulated : ctaid=(14,5,0) tid=(4,6,0)
GPGPU-Sim PTX: 13800000 instructions simulated : ctaid=(6,1,0) tid=(14,4,0)
GPGPU-Sim uArch: cycles simulated: 35000  inst.: 13443322 (ipc=384.1) sim_rate=448110 (inst/sec) elapsed = 0:0:00:30 / Sun Feb 28 21:41:58 2016
GPGPU-Sim PTX: 13900000 instructions simulated : ctaid=(14,6,0) tid=(5,4,0)
GPGPU-Sim PTX: 14000000 instructions simulated : ctaid=(12,1,0) tid=(0,0,0)
GPGPU-Sim PTX: 14100000 instructions simulated : ctaid=(14,6,0) tid=(14,4,0)
GPGPU-Sim PTX: 14200000 instructions simulated : ctaid=(14,4,0) tid=(6,1,0)
GPGPU-Sim PTX: 14300000 instructions simulated : ctaid=(11,5,0) tid=(10,7,0)
GPGPU-Sim PTX: 14400000 instructions simulated : ctaid=(14,4,0) tid=(2,6,0)
GPGPU-Sim PTX: 14500000 instructions simulated : ctaid=(7,4,0) tid=(15,4,0)
GPGPU-Sim PTX: 14600000 instructions simulated : ctaid=(5,6,0) tid=(4,1,0)
GPGPU-Sim uArch: cycles simulated: 36500  inst.: 14272403 (ipc=391.0) sim_rate=460400 (inst/sec) elapsed = 0:0:00:31 / Sun Feb 28 21:41:59 2016
GPGPU-Sim PTX: 14700000 instructions simulated : ctaid=(5,0,0) tid=(0,3,0)
GPGPU-Sim PTX: 14800000 instructions simulated : ctaid=(10,5,0) tid=(12,0,0)
GPGPU-Sim PTX: 14900000 instructions simulated : ctaid=(8,4,0) tid=(6,7,0)
GPGPU-Sim PTX: 15000000 instructions simulated : ctaid=(5,5,0) tid=(2,1,0)
GPGPU-Sim PTX: 15100000 instructions simulated : ctaid=(8,3,0) tid=(11,4,0)
GPGPU-Sim PTX: 15200000 instructions simulated : ctaid=(4,5,0) tid=(4,4,0)
GPGPU-Sim uArch: cycles simulated: 37500  inst.: 14848761 (ipc=396.0) sim_rate=464023 (inst/sec) elapsed = 0:0:00:32 / Sun Feb 28 21:42:00 2016
GPGPU-Sim PTX: 15300000 instructions simulated : ctaid=(1,5,0) tid=(6,6,0)
GPGPU-Sim PTX: 15400000 instructions simulated : ctaid=(4,0,0) tid=(0,5,0)
GPGPU-Sim PTX: 15500000 instructions simulated : ctaid=(4,5,0) tid=(14,1,0)
GPGPU-Sim PTX: 15600000 instructions simulated : ctaid=(4,5,0) tid=(5,5,0)
GPGPU-Sim PTX: 15700000 instructions simulated : ctaid=(11,6,0) tid=(7,0,0)
GPGPU-Sim uArch: cycles simulated: 38500  inst.: 15324554 (ipc=398.0) sim_rate=464380 (inst/sec) elapsed = 0:0:00:33 / Sun Feb 28 21:42:01 2016
GPGPU-Sim PTX: 15800000 instructions simulated : ctaid=(8,1,0) tid=(12,6,0)
GPGPU-Sim PTX: 15900000 instructions simulated : ctaid=(4,5,0) tid=(11,0,0)
GPGPU-Sim uArch: Shader 14 finished CTA #3 (39024,0), 4 CTAs running
GPGPU-Sim uArch: core: 14, cta: 3 initialized @(39025,0)
GPGPU-Sim PTX: 16000000 instructions simulated : ctaid=(8,1,0) tid=(15,3,0)
GPGPU-Sim PTX: 16100000 instructions simulated : ctaid=(8,5,0) tid=(9,0,0)
GPGPU-Sim uArch: Shader 13 finished CTA #2 (39400,0), 4 CTAs running
GPGPU-Sim uArch: core: 13, cta: 2 initialized @(39401,0)
GPGPU-Sim PTX: 16200000 instructions simulated : ctaid=(8,6,0) tid=(6,3,0)
GPGPU-Sim PTX: 16300000 instructions simulated : ctaid=(4,0,0) tid=(8,3,0)
GPGPU-Sim PTX: 16400000 instructions simulated : ctaid=(5,7,0) tid=(8,4,0)
GPGPU-Sim uArch: cycles simulated: 40000  inst.: 15959944 (ipc=399.0) sim_rate=469410 (inst/sec) elapsed = 0:0:00:34 / Sun Feb 28 21:42:02 2016
GPGPU-Sim PTX: 16500000 instructions simulated : ctaid=(12,5,0) tid=(10,2,0)
GPGPU-Sim PTX: 16600000 instructions simulated : ctaid=(7,5,0) tid=(14,1,0)
GPGPU-Sim PTX: 16700000 instructions simulated : ctaid=(8,4,0) tid=(7,4,0)
GPGPU-Sim PTX: 16800000 instructions simulated : ctaid=(14,6,0) tid=(10,2,0)
GPGPU-Sim uArch: cycles simulated: 41000  inst.: 16396988 (ipc=399.9) sim_rate=468485 (inst/sec) elapsed = 0:0:00:35 / Sun Feb 28 21:42:03 2016
GPGPU-Sim PTX: 16900000 instructions simulated : ctaid=(11,1,0) tid=(10,2,0)
GPGPU-Sim PTX: 17000000 instructions simulated : ctaid=(5,6,0) tid=(5,2,0)
GPGPU-Sim PTX: 17100000 instructions simulated : ctaid=(8,2,0) tid=(14,7,0)
GPGPU-Sim uArch: Shader 5 finished CTA #1 (41548,0), 4 CTAs running
GPGPU-Sim uArch: core:  5, cta: 1 initialized @(41549,0)
GPGPU-Sim PTX: 17200000 instructions simulated : ctaid=(7,4,0) tid=(11,1,0)
GPGPU-Sim PTX: 17300000 instructions simulated : ctaid=(12,5,0) tid=(7,2,0)
GPGPU-Sim uArch: cycles simulated: 42000  inst.: 16904835 (ipc=402.5) sim_rate=469578 (inst/sec) elapsed = 0:0:00:36 / Sun Feb 28 21:42:04 2016
GPGPU-Sim PTX: 17400000 instructions simulated : ctaid=(5,7,0) tid=(15,6,0)
GPGPU-Sim PTX: 17500000 instructions simulated : ctaid=(12,6,0) tid=(2,5,0)
GPGPU-Sim PTX: 17600000 instructions simulated : ctaid=(10,5,0) tid=(2,7,0)
GPGPU-Sim PTX: 17700000 instructions simulated : ctaid=(3,7,0) tid=(10,0,0)
GPGPU-Sim PTX: 17800000 instructions simulated : ctaid=(11,4,0) tid=(12,7,0)
GPGPU-Sim PTX: 17900000 instructions simulated : ctaid=(10,5,0) tid=(11,0,0)
GPGPU-Sim uArch: Shader 9 finished CTA #3 (43342,0), 4 CTAs running
GPGPU-Sim uArch: core:  9, cta: 3 initialized @(43343,0)
GPGPU-Sim PTX: 18000000 instructions simulated : ctaid=(12,5,0) tid=(14,6,0)
GPGPU-Sim uArch: cycles simulated: 43500  inst.: 17555757 (ipc=403.6) sim_rate=474479 (inst/sec) elapsed = 0:0:00:37 / Sun Feb 28 21:42:05 2016
GPGPU-Sim uArch: Shader 9 finished CTA #4 (43535,0), 4 CTAs running
GPGPU-Sim uArch: core:  9, cta: 4 initialized @(43536,0)
GPGPU-Sim PTX: 18100000 instructions simulated : ctaid=(9,6,0) tid=(0,3,0)
GPGPU-Sim uArch: Shader 12 finished CTA #3 (43777,0), 4 CTAs running
GPGPU-Sim uArch: core: 12, cta: 3 initialized @(43778,0)
GPGPU-Sim PTX: 18200000 instructions simulated : ctaid=(5,5,0) tid=(2,6,0)
GPGPU-Sim uArch: Shader 4 finished CTA #0 (43886,0), 4 CTAs running
GPGPU-Sim uArch: core:  4, cta: 0 initialized @(43887,0)
GPGPU-Sim PTX: 18300000 instructions simulated : ctaid=(3,7,0) tid=(3,3,0)
GPGPU-Sim uArch: Shader 4 finished CTA #1 (44134,0), 4 CTAs running
GPGPU-Sim uArch: core:  4, cta: 1 initialized @(44135,0)
GPGPU-Sim PTX: 18400000 instructions simulated : ctaid=(0,5,0) tid=(14,5,0)
GPGPU-Sim uArch: Shader 4 finished CTA #2 (44329,0), 4 CTAs running
GPGPU-Sim uArch: core:  4, cta: 2 initialized @(44330,0)
GPGPU-Sim PTX: 18500000 instructions simulated : ctaid=(7,7,0) tid=(8,0,0)
GPGPU-Sim uArch: cycles simulated: 44500  inst.: 18014791 (ipc=404.8) sim_rate=474073 (inst/sec) elapsed = 0:0:00:38 / Sun Feb 28 21:42:06 2016
GPGPU-Sim PTX: 18600000 instructions simulated : ctaid=(13,6,0) tid=(6,0,0)
GPGPU-Sim uArch: Shader 10 finished CTA #4 (44753,0), 4 CTAs running
GPGPU-Sim uArch: core: 10, cta: 4 initialized @(44754,0)
GPGPU-Sim uArch: Shader 14 finished CTA #1 (44896,0), 4 CTAs running
GPGPU-Sim uArch: core: 14, cta: 1 initialized @(44897,0)
GPGPU-Sim uArch: Shader 4 finished CTA #3 (44902,0), 4 CTAs running
GPGPU-Sim uArch: core:  4, cta: 3 initialized @(44903,0)
GPGPU-Sim PTX: 18700000 instructions simulated : ctaid=(8,2,0) tid=(10,2,0)
GPGPU-Sim uArch: Shader 6 finished CTA #2 (44954,0), 4 CTAs running
GPGPU-Sim uArch: core:  6, cta: 2 initialized @(44955,0)
GPGPU-Sim uArch: Shader 6 finished CTA #1 (44997,0), 4 CTAs running
GPGPU-Sim uArch: core:  6, cta: 1 initialized @(44998,0)
GPGPU-Sim uArch: Shader 6 finished CTA #3 (45040,0), 4 CTAs running
GPGPU-Sim uArch: core:  6, cta: 3 initialized @(45041,0)
GPGPU-Sim uArch: Shader 10 finished CTA #3 (45129,0), 4 CTAs running
GPGPU-Sim uArch: core: 10, cta: 3 initialized @(45130,0)
GPGPU-Sim uArch: Shader 14 finished CTA #0 (45141,0), 4 CTAs running
GPGPU-Sim uArch: core: 14, cta: 0 initialized @(45142,0)
GPGPU-Sim PTX: 18800000 instructions simulated : ctaid=(10,7,0) tid=(9,4,0)
GPGPU-Sim uArch: Shader 13 finished CTA #0 (45215,0), 4 CTAs running
GPGPU-Sim uArch: core: 13, cta: 0 initialized @(45216,0)
GPGPU-Sim PTX: 18900000 instructions simulated : ctaid=(3,7,0) tid=(6,5,0)
GPGPU-Sim uArch: cycles simulated: 45500  inst.: 18417783 (ipc=404.8) sim_rate=472250 (inst/sec) elapsed = 0:0:00:39 / Sun Feb 28 21:42:07 2016
GPGPU-Sim uArch: Shader 5 finished CTA #2 (45507,0), 4 CTAs running
GPGPU-Sim uArch: core:  5, cta: 2 initialized @(45508,0)
GPGPU-Sim uArch: Shader 11 finished CTA #4 (45587,0), 4 CTAs running
GPGPU-Sim uArch: core: 11, cta: 4 initialized @(45588,0)
GPGPU-Sim uArch: Shader 5 finished CTA #4 (45623,0), 4 CTAs running
GPGPU-Sim uArch: core:  5, cta: 4 initialized @(45624,0)
GPGPU-Sim PTX: 19000000 instructions simulated : ctaid=(11,7,0) tid=(11,0,0)
GPGPU-Sim uArch: Shader 13 finished CTA #1 (45808,0), 4 CTAs running
[...]
traffic_breakdown_memtocore[LOCAL_ACC_W] = 421072 {8:52634,}
maxmrqlatency = 616 
maxdqlatency = 0 
maxmflatency = 1827 
averagemflatency = 253 
max_icnt2mem_latency = 1107 
max_icnt2sh_latency = 147302 
mrq_lat_table:17454 	2242 	1630 	2533 	6547 	4613 	3713 	2138 	268 	9 	0 	0 	0 	0 	0 	0 	0 	0 	0 	0 	0 	0 	0 	0 	0 	0 	0 	0 	0 	0 	0 	0 	
dq_lat_table:0 	0 	0 	0 	0 	0 	0 	0 	0 	0 	0 	0 	0 	0 	0 	0 	0 	0 	0 	0 	0 	0 	0 	0 	0 	0 	0 	0 	0 	0 	0 	0 	
mf_lat_table:0 	0 	0 	0 	0 	0 	0 	58789 	12240 	4642 	861 	0 	0 	0 	0 	0 	0 	0 	0 	0 	0 	0 	0 	0 	0 	0 	0 	0 	0 	0 	0 	0 	
icnt2mem_lat_table:0 	0 	0 	23796 	17415 	17425 	33691 	2133 	2354 	433 	4 	0 	0 	0 	0 	0 	0 	0 	0 	0 	0 	0 	0 	0 	
icnt2sh_lat_table:0 	0 	0 	8695 	5678 	1264 	69 	0 	0 	186 	497 	1395 	3086 	2636 	6257 	12043 	25948 	8778 	0 	0 	0 	0 	0 	0 	
mf_lat_pw_table:0 	0 	0 	0 	0 	0 	0 	247 	8 	16 	2 	0 	0 	0 	0 	0 	0 	0 	0 	0 	0 	0 	0 	0 	0 	0 	0 	0 	0 	0 	0 	0 	
maximum concurrent accesses to same row:
dram[0]:        54        56        36        34        26        24        42        22        28        20        14        12        14        22        20        20 
dram[1]:        52        54        34        32        20        25        33        34        24        16        15        19        24        15        18        20 
dram[2]:        62        62        54        56        30        28        25        40        22        24        18        21        16        20        23        18 
dram[3]:        58        60        54        56        25        28        33        36        22        22        22        16        15        16        20        19 
dram[4]:        62        64        56        52        32        28        40        23        25        20        19        16        17        14        22        21 
dram[5]:        58        60        56        48        26        30        24        37        26        22        17        16        18        14        18        20 
maximum service time to same row:
dram[0]:     15445     13462     19482     17031     16011     16444     17725     17169     18056     17930     20910     39438     22172     22181     22246     19534 
dram[1]:     12640     11499     24374     17921     16588     13769     14255     17653     19007     18706     19969     37514     20745     35841     34926     19779 
dram[2]:     13869     20269     17263     22638     16384     16484     13721     17851     18862     18993     30161     21974     23290     29169     36979     23819 
dram[3]:     16526     16329     33577     31078     18690     16735     17663     16585     19259     18891     22918     19823     23112     36620     36795     19256 
dram[4]:     17380     15716     21434     28632     13842     16654     31762     16280     17973     18298     37269     27112     29770     29678     29051     21741 
dram[5]:     10988     15346     17499     17609     14716     19750     16750     17491     17776     17824     37137     29776     29726     29535     20212     24843 
average row accesses per activate:
dram[0]:  5.347826  4.537634  5.379310  4.875000  3.663461  3.170068  4.677083  3.629032  3.308176  2.963542  3.206107  3.403101  3.183544  3.834483  4.322581  3.593220 
dram[1]:  4.478261  4.716049  4.969231  4.746032  3.516393  3.785714  3.218543  4.177083  3.116667  2.863636  3.094340  3.451613  3.135294  3.748148  3.661017  3.344262 
dram[2]:  4.738095  5.896552  5.716981  5.301887  3.684685  3.750000  3.303704  5.225352  3.152047  3.277778  3.270677  3.849462  3.622222  3.916667  5.071429  4.146341 
dram[3]:  4.731707  5.152778  6.550000  5.642857  3.787234  3.211679  4.074468  3.503937  3.406897  2.940541  3.560748  3.427351  3.572464  3.452055  4.345679  3.554545 
dram[4]:  6.796296  5.166667  6.180000  5.909091  3.315789  3.409449  4.505263  3.650794  3.102703  2.994475  3.681416  3.219858  3.691781  3.192771  4.106383  4.402174 
dram[5]:  4.916667  4.967033  4.237500  5.074074  2.914110  3.378788  3.216216  3.809524  3.099476  3.411043  3.318182  3.653465  3.417722  3.323864  3.346154  4.000000 
average row locality = 41147/11038 = 3.727759
number of total memory accesses made:
dram[0]:         0         0         0         0         0         0         0         0         0         0         0         0         0         0         0         0 
dram[1]:         0         0         0         0         0         0         0         0         0         0         0         0         0         0         0         0 
dram[2]:         0         0         0         0         0         0         0         0         0         0         0         0         0         0         0         0 
dram[3]:         0         0         0         0         0         0         0         0         0         0         0         0         0         0         0         0 
dram[4]:         0         0         0         0         0         0         0         0         0         0         0         0         0         0         0         0 
dram[5]:         0         0         0         0         0         0         0         0         0         0         0         0         0         0         0         0 
total accesses: 0
min_bank_accesses = 0!
min_chip_accesses = 0!
number of total read accesses:
dram[0]:       167       183       136       150       155       191       176       178       209       228       165       175       197       232       171       181 
dram[1]:       182       167       139       131       178       173       198       156       226       207       197       166       213       204       181       172 
dram[2]:       176       151       131       125       167       164       180       145       219       189       179       145       204       193       154       147 
dram[3]:       170       163       118       139       146       185       155       180       198       221       154       168       202       216       148       164 
dram[4]:       163       175       135       141       187       178       165       181       227       216       163       184       215       219       161       171 
dram[5]:       180       194       147       119       199       183       186       159       237       217       182       147       223       239       185       150 
total reads: 17008
bank skew: 239/118 = 2.03
chip skew: 2947/2669 = 1.10
number of total write accesses:
dram[0]:       202       239       176       201       226       275       273       272       317       341       255       264       306       324       231       243 
dram[1]:       230       215       184       168       251       251       288       245       335       297       295       262       320       302       251       236 
dram[2]:       222       191       172       156       242       241       266       226       320       283       256       213       285       277       201       193 
dram[3]:       218       208       144       177       210       255       228       265       296       323       227       233       291       288       204       227 
dram[4]:       204       228       174       184       254       255       263       279       347       326       253       270       324       311       225       234 
dram[5]:       233       258       192       155       276       263       290       241       355       339       256       222       317       346       250       202 
total reads: 24139
bank skew: 355/144 = 2.47
chip skew: 4195/3744 = 1.12
average mf latency per bank:
dram[0]:        634       492       698       586       580       455       534       500       423       384       504       487       413       378       437       412
dram[1]:        637       506       642       657       477       465       455       504       365       399       405       459       358       367       380       399
dram[2]:        530       622       699       710       507       524       494       598       402       436       449       533       404       411       465       477
dram[3]:        486       566       760       609       513       464       509       462       398       357       470       462       367       357       438       394
dram[4]:        633       493       719       703       502       521       523       502       393       397       507       477       385       392       453       441
dram[5]:        526       442       620       726       426       463       433       499       352       351       430       505       345       328       378       457
maximum mf latency per bank:
dram[0]:       1293      1002      1676      1197      1363      1246      1436      1223      1354      1238      1300      1170      1424      1291      1230      1128
dram[1]:        914      1006      1318      1232      1097      1194      1045      1048      1033       997      1067      1015       960       939       997      1089
dram[2]:       1316      1333      1735      1723      1548      1584      1584      1442      1432      1494      1290      1221      1328      1442      1382      1319
dram[3]:       1138      1370      1537      1697      1341      1619      1117      1455      1075      1072       991      1106      1029      1192      1153      1087
dram[4]:       1393      1510      1827      1821      1698      1698      1689      1761      1615      1426      1322      1302      1365      1197      1231      1358
dram[5]:       1374      1347      1776      1558      1604      1693      1447      1507      1206      1027      1112      1036      1117      1110      1102      1070

Number of Memory Banks Accessed per Memory Operation per Warp (from 0):
0	0	0	0	0	0	0	0	0	0	0	0	0	0	0	0	0	0	0	0	0	0	0	0	0	0	0	0	0	0	0	0	0	0	0	0	0	0	0	0	0	0	0	0	0	0	0	0	0	0	0	0	0	0	0	0	0	0	0	0	0	0	0	0	0	0	0	0	0	0	0	0	0	0	0	0	0	0	0	0	0	0	0	0	0	0	0	0	0	0	0	0	0	0	0	0	
Average # of Memory Banks Accessed per Memory Operation per Warp=-nan

position of mrq chosen
0	0	0	0	0	0	0	0	0	0	0	0	0	0	0	0	

average position of mrq chosen = -nan
Memory Partition 0: 
Cache L2_bank_000:
MSHR contents

Cache L2_bank_001:
MSHR contents

In Dram Latency Queue (total = 0): 
DRAM[0]: 16 bks, busW=4 BL=8 CL=12, tRRD=2 tCCD=6, tRCD=12 tRAS=28 tRP=12 tRC=40
n_cmd=194439 n_nop=177096 n_act=1888 n_pre=1872 n_req=7039 n_rd=5788 n_write=7795 bw_util=0.1397
n_activity=68738 dram_eff=0.3952
bk0: 334a 184422i bk1: 366a 183662i bk2: 272a 184929i bk3: 300a 184373i bk4: 310a 182188i bk5: 382a 180499i bk6: 352a 180206i bk7: 356a 179976i bk8: 418a 179503i bk9: 456a 178219i bk10: 330a 181069i bk11: 350a 180854i bk12: 394a 179152i bk13: 464a 178592i bk14: 342a 181950i bk15: 362a 181320i 
dram_util_bins: 0 0 0 0 0 0 0 0 0 0
dram_eff_bins: 0 0 0 0 0 0 0 0 0 0
mrqq: max=16 avg=1.39602
Memory Partition 1: 
Cache L2_bank_002:
MSHR contents

Cache L2_bank_003:
MSHR contents

In Dram Latency Queue (total = 0): 
DRAM[1]: 16 bks, busW=4 BL=8 CL=12, tRRD=2 tCCD=6, tRCD=12 tRAS=28 tRP=12 tRC=40
n_cmd=194439 n_nop=176936 n_act=1966 n_pre=1950 n_req=7020 n_rd=5780 n_write=7807 bw_util=0.1398
n_activity=68400 dram_eff=0.3973
bk0: 364a 183773i bk1: 334a 184449i bk2: 278a 184463i bk3: 262a 185369i bk4: 356a 181397i bk5: 346a 180991i bk6: 396a 178813i bk7: 312a 181743i bk8: 452a 178494i bk9: 414a 178697i bk10: 394a 178517i bk11: 332a 180566i bk12: 426a 177874i bk13: 408a 179534i bk14: 362a 181271i bk15: 344a 180762i 
dram_util_bins: 0 0 0 0 0 0 0 0 0 0
dram_eff_bins: 0 0 0 0 0 0 0 0 0 0
mrqq: max=16 avg=1.3525
Memory Partition 2: 
Cache L2_bank_004:
MSHR contents

Cache L2_bank_005:
MSHR contents

In Dram Latency Queue (total = 0): 
DRAM[2]: 16 bks, busW=4 BL=8 CL=12, tRRD=2 tCCD=6, tRCD=12 tRAS=28 tRP=12 tRC=40
n_cmd=194439 n_nop=178874 n_act=1621 n_pre=1605 n_req=6413 n_rd=5338 n_write=7001 bw_util=0.1269
n_activity=63739 dram_eff=0.3872
bk0: 352a 184025i bk1: 302a 185863i bk2: 262a 185899i bk3: 250a 186396i bk4: 334a 182523i bk5: 328a 182050i bk6: 360a 180319i bk7: 290a 182590i bk8: 438a 179720i bk9: 378a 180484i bk10: 358a 180815i bk11: 290a 183156i bk12: 408a 179988i bk13: 386a 180199i bk14: 308a 183468i bk15: 294a 183596i 
dram_util_bins: 0 0 0 0 0 0 0 0 0 0
dram_eff_bins: 0 0 0 0 0 0 0 0 0 0
mrqq: max=16 avg=1.34854
Memory Partition 3: 
Cache L2_bank_006:
MSHR contents

Cache L2_bank_007:
MSHR contents

In Dram Latency Queue (total = 0): 
DRAM[3]: 16 bks, busW=4 BL=8 CL=12, tRRD=2 tCCD=6, tRCD=12 tRAS=28 tRP=12 tRC=40
n_cmd=194439 n_nop=178415 n_act=1731 n_pre=1715 n_req=6521 n_rd=5454 n_write=7124 bw_util=0.1294
n_activity=65579 dram_eff=0.3836
bk0: 340a 184542i bk1: 326a 184804i bk2: 236a 186971i bk3: 278a 185914i bk4: 292a 183337i bk5: 370a 181761i bk6: 310a 182824i bk7: 360a 180649i bk8: 396a 180508i bk9: 442a 178696i bk10: 308a 182767i bk11: 336a 181778i bk12: 404a 179720i bk13: 432a 179192i bk14: 296a 183342i bk15: 328a 182314i 
dram_util_bins: 0 0 0 0 0 0 0 0 0 0
dram_eff_bins: 0 0 0 0 0 0 0 0 0 0
mrqq: max=16 avg=1.19866
Memory Partition 4: 
Cache L2_bank_008:
MSHR contents

Cache L2_bank_009:
MSHR contents

In Dram Latency Queue (total = 0): 
DRAM[4]: 16 bks, busW=4 BL=8 CL=12, tRRD=2 tCCD=6, tRCD=12 tRAS=28 tRP=12 tRC=40
n_cmd=194439 n_nop=177234 n_act=1836 n_pre=1820 n_req=7012 n_rd=5762 n_write=7787 bw_util=0.1394
n_activity=69121 dram_eff=0.392
bk0: 326a 185135i bk1: 350a 184496i bk2: 270a 185328i bk3: 282a 184879i bk4: 374a 181098i bk5: 356a 180439i bk6: 330a 181058i bk7: 362a 179853i bk8: 454a 177669i bk9: 432a 177873i bk10: 326a 181777i bk11: 368a 180537i bk12: 430a 177366i bk13: 438a 178524i bk14: 322a 182555i bk15: 342a 181904i 
dram_util_bins: 0 0 0 0 0 0 0 0 0 0
dram_eff_bins: 0 0 0 0 0 0 0 0 0 0
mrqq: max=16 avg=1.39697
Memory Partition 5: 
Cache L2_bank_010:
MSHR contents

Cache L2_bank_011:
MSHR contents

In Dram Latency Queue (total = 0): 
DRAM[5]: 16 bks, busW=4 BL=8 CL=12, tRRD=2 tCCD=6, tRCD=12 tRAS=28 tRP=12 tRC=40
n_cmd=194439 n_nop=176621 n_act=1996 n_pre=1980 n_req=7142 n_rd=5894 n_write=7948 bw_util=0.1424
n_activity=70767 dram_eff=0.3912
bk0: 360a 183969i bk1: 388a 182837i bk2: 294a 184137i bk3: 238a 186163i bk4: 398a 180378i bk5: 366a 180550i bk6: 372a 180243i bk7: 318a 182080i bk8: 474a 178251i bk9: 434a 179372i bk10: 364a 181720i bk11: 294a 183294i bk12: 446a 178482i bk13: 478a 177209i bk14: 370a 180475i bk15: 300a 183513i 
dram_util_bins: 0 0 0 0 0 0 0 0 0 0
dram_eff_bins: 0 0 0 0 0 0 0 0 0 0
mrqq: max=16 avg=1.24277

========= L2 cache stats =========
L2_cache_bank[0]: Access = 8267, Miss = 1376, Miss_rate = 0.166, Pending_hits = 98, Reservation_fails = 989
L2_cache_bank[1]: Access = 8399, Miss = 1518, Miss_rate = 0.181, Pending_hits = 63, Reservation_fails = 633
L2_cache_bank[2]: Access = 8302, Miss = 1514, Miss_rate = 0.182, Pending_hits = 63, Reservation_fails = 551
L2_cache_bank[3]: Access = 8021, Miss = 1376, Miss_rate = 0.172, Pending_hits = 67, Reservation_fails = 387
L2_cache_bank[4]: Access = 7612, Miss = 1410, Miss_rate = 0.185, Pending_hits = 69, Reservation_fails = 563
L2_cache_bank[5]: Access = 7871, Miss = 1259, Miss_rate = 0.160, Pending_hits = 89, Reservation_fails = 372
L2_cache_bank[6]: Access = 7853, Miss = 1291, Miss_rate = 0.164, Pending_hits = 62, Reservation_fails = 519
L2_cache_bank[7]: Access = 8078, Miss = 1436, Miss_rate = 0.178, Pending_hits = 58, Reservation_fails = 419
L2_cache_bank[8]: Access = 8445, Miss = 1416, Miss_rate = 0.168, Pending_hits = 83, Reservation_fails = 788
L2_cache_bank[9]: Access = 8013, Miss = 1465, Miss_rate = 0.183, Pending_hits = 65, Reservation_fails = 389
L2_cache_bank[10]: Access = 8327, Miss = 1539, Miss_rate = 0.185, Pending_hits = 49, Reservation_fails = 591
L2_cache_bank[11]: Access = 8063, Miss = 1408, Miss_rate = 0.175, Pending_hits = 71, Reservation_fails = 319
L2_total_cache_accesses = 97251
L2_total_cache_misses = 17008
L2_total_cache_miss_rate = 0.1749
L2_total_cache_pending_hits = 837
L2_total_cache_reservation_fails = 6520
L2_total_cache_breakdown:
	L2_cache_stats_breakdown[GLOBAL_ACC_R][HIT] = 3849
	L2_cache_stats_breakdown[GLOBAL_ACC_R][HIT_RESERVED] = 16
	L2_cache_stats_breakdown[GLOBAL_ACC_R][MISS] = 262
	L2_cache_stats_breakdown[GLOBAL_ACC_R][RESERVATION_FAIL] = 7
	L2_cache_stats_breakdown[LOCAL_ACC_R][HIT] = 10742
	L2_cache_stats_breakdown[LOCAL_ACC_R][HIT_RESERVED] = 37
	L2_cache_stats_breakdown[LOCAL_ACC_R][MISS] = 770
	L2_cache_stats_breakdown[CONST_ACC_R][HIT] = 22
	L2_cache_stats_breakdown[CONST_ACC_R][HIT_RESERVED] = 6
	L2_cache_stats_breakdown[CONST_ACC_R][MISS] = 2
	L2_cache_stats_breakdown[CONST_ACC_R][RESERVATION_FAIL] = 353
	L2_cache_stats_breakdown[GLOBAL_ACC_W][HIT] = 5535
	L2_cache_stats_breakdown[GLOBAL_ACC_W][HIT_RESERVED] = 609
	L2_cache_stats_breakdown[GLOBAL_ACC_W][MISS] = 2048
	L2_cache_stats_breakdown[GLOBAL_ACC_W][RESERVATION_FAIL] = 95
	L2_cache_stats_breakdown[LOCAL_ACC_W][HIT] = 39649
	L2_cache_stats_breakdown[LOCAL_ACC_W][HIT_RESERVED] = 17
	L2_cache_stats_breakdown[LOCAL_ACC_W][MISS] = 12968
	L2_cache_stats_breakdown[LOCAL_ACC_W][RESERVATION_FAIL] = 541
	L2_cache_stats_breakdown[L1_WRBK_ACC][HIT] = 5992
	L2_cache_stats_breakdown[L1_WRBK_ACC][MISS] = 905
	L2_cache_stats_breakdown[INST_ACC_R][HIT] = 13617
	L2_cache_stats_breakdown[INST_ACC_R][HIT_RESERVED] = 152
	L2_cache_stats_breakdown[INST_ACC_R][MISS] = 53
	L2_cache_stats_breakdown[INST_ACC_R][RESERVATION_FAIL] = 5524
L2_cache_data_port_util = 0.173
L2_cache_fill_port_util = 0.038

icnt_total_pkts_mem_to_simt=208406
icnt_total_pkts_simt_to_mem=347953
LD_mem_lat_dist  0 0 0 0 0 0 0 0 0 0 0 0 0 0 0 0 0 0 0 0 0 0 0 0 0 0 0
ST_mem_lat_dist  0 0 0 0 0 0 0 0 0 0 0 0 0 0 0 0 0 0 0 0 0 0 0 0 0 0 0
----------------------------Interconnect-DETAILS--------------------------------
Class 0:
Packet latency average = 16.882
	minimum = 6
	maximum = 630
Network latency average = 13.3359
	minimum = 6
	maximum = 582
Slowest packet = 1359
Flit latency average = 12.1894
	minimum = 6
	maximum = 578
Slowest flit = 5056
Fragmentation average = 0.0906266
	minimum = 0
	maximum = 553
Injected packet rate average = 0.0471703
	minimum = 0.0396122 (at node 1)
	maximum = 0.0534205 (at node 23)
Accepted packet rate average = 0.0471703
	minimum = 0.0373448 (at node 7)
	maximum = 0.0573308 (at node 23)
Injected flit rate average = 0.139888
	minimum = 0.107343 (at node 19)
	maximum = 0.166772 (at node 5)
Accepted flit rate average= 0.139888
	minimum = 0.0816005 (at node 1)
	maximum = 0.20451 (at node 15)
Injected packet length average = 2.96559
Accepted packet length average = 2.96559
Total in-flight flits = 0 (0 measured)
====== Overall Traffic Statistics ======
====== Traffic class 0 ======
Packet latency average = 16.882 (1 samples)
	minimum = 6 (1 samples)
	maximum = 630 (1 samples)
Network latency average = 13.3359 (1 samples)
	minimum = 6 (1 samples)
	maximum = 582 (1 samples)
Flit latency average = 12.1894 (1 samples)
	minimum = 6 (1 samples)
	maximum = 578 (1 samples)
Fragmentation average = 0.0906266 (1 samples)
	minimum = 0 (1 samples)
	maximum = 553 (1 samples)
Injected packet rate average = 0.0471703 (1 samples)
	minimum = 0.0396122 (1 samples)
	maximum = 0.0534205 (1 samples)
Accepted packet rate average = 0.0471703 (1 samples)
	minimum = 0.0373448 (1 samples)
	maximum = 0.0573308 (1 samples)
Injected flit rate average = 0.139888 (1 samples)
	minimum = 0.107343 (1 samples)
	maximum = 0.166772 (1 samples)
Accepted flit rate average = 0.139888 (1 samples)
	minimum = 0.0816005 (1 samples)
	maximum = 0.20451 (1 samples)
Injected packet size average = 2.96559 (1 samples)
Accepted packet size average = 2.96559 (1 samples)
Hops average = 1 (1 samples)
----------------------------END-of-Interconnect-DETAILS-------------------------


gpgpu_simulation_time = 0 days, 0 hrs, 2 min, 21 sec (141 sec)
gpgpu_simulation_rate = 444557 (inst/sec)
gpgpu_simulation_rate = 1044 (cycle/sec)
GPGPU-Sim: synchronize waiting for inactive GPU simulation
GPGPU-Sim API: Stream Manager State
GPGPU-Sim: detected inactive GPU simulation thread

checksum=75ef40cb5b8e
Kernel Time: 138617.875000 
