tput: No value for $TERM and no -T specified
gpgpu_ptx_sim__kmeans: gpu-cache.cc:84: virtual unsigned int l1d_cache_config::set_index(new_addr_type) const: Assertion `"\nGPGPU-Sim cache configuration error: The number of sets should be " "32 or 64 for the hashing set index function.\n" && 0' failed.
/sciclone/data20/adwait/applications/bash-scripts/run_scripts/CUDA/mainscript_kmeans: line 1:  8980 Aborted                 (core dumped) ./gpgpu_ptx_sim__kmeans -o -i ./data/204800.txt > output_kmeans.txt
