

        *** GPGPU-Sim Simulator Version 3.2.2  [build 0] ***


GPGPU-Sim PTX: simulation mode 0 (can change with PTX_SIM_MODE_FUNC environment variable:
               1=functional simulation only, 0=detailed performance simulator)
GPGPU-Sim: Configuration options:

-network_mode                           1 # Interconnection network mode
-inter_config_file   config_fermi_islip.icnt # Interconnection network config file
-gpgpu_ptx_use_cuobjdump                    1 # Use cuobjdump to extract ptx and sass from binaries
-gpgpu_experimental_lib_support                    0 # Try to extract code from cuda libraries [Broken because of unknown cudaGetExportTable]
-gpgpu_ptx_convert_to_ptxplus                    0 # Convert SASS (native ISA) to ptxplus and run ptxplus
-gpgpu_ptx_force_max_capability                   20 # Force maximum compute capability
-gpgpu_ptx_inst_debug_to_file                    0 # Dump executed instructions' debug information to file
-gpgpu_ptx_inst_debug_file       inst_debug.txt # Executed instructions' debug output file
-gpgpu_ptx_inst_debug_thread_uid                    1 # Thread UID for executed instructions' debug output
-gpgpu_simd_model                       1 # 1 = post-dominator
-gpgpu_shader_core_pipeline              1536:32 # shader core pipeline config, i.e., {<nthread>:<warpsize>}
-gpgpu_tex_cache:l1  4:128:24,L:R:m:N:L,F:128:4,128:2 # per-shader L1 texture cache  (READ-ONLY) config  {<nsets>:<bsize>:<assoc>,<rep>:<wr>:<alloc>:<wr_alloc>,<mshr>:<N>:<merge>,<mq>:<rf>}
-gpgpu_const_cache:l1 64:64:2,L:R:f:N:L,A:2:32,4 # per-shader L1 constant memory cache  (READ-ONLY) config  {<nsets>:<bsize>:<assoc>,<rep>:<wr>:<alloc>:<wr_alloc>,<mshr>:<N>:<merge>,<mq>} 
-gpgpu_cache:il1     4:128:4,L:R:f:N:L,A:2:32,4 # shader L1 instruction cache config  {<nsets>:<bsize>:<assoc>,<rep>:<wr>:<alloc>:<wr_alloc>,<mshr>:<N>:<merge>,<mq>} 
-gpgpu_cache:dl1     32:128:4,L:L:m:N:H,A:32:8,8 # per-shader L1 data cache config  {<nsets>:<bsize>:<assoc>,<rep>:<wr>:<alloc>:<wr_alloc>,<mshr>:<N>:<merge>,<mq> | none}
-gpgpu_cache:dl1PrefL1                 none # per-shader L1 data cache config  {<nsets>:<bsize>:<assoc>,<rep>:<wr>:<alloc>:<wr_alloc>,<mshr>:<N>:<merge>,<mq> | none}
-gpgpu_cache:dl1PreShared                 none # per-shader L1 data cache config  {<nsets>:<bsize>:<assoc>,<rep>:<wr>:<alloc>:<wr_alloc>,<mshr>:<N>:<merge>,<mq> | none}
-gmem_skip_L1D                          0 # global memory access skip L1D cache (implements -Xptxas -dlcm=cg, default=no skip)
-gpgpu_perfect_mem                      0 # enable perfect memory mode (no cache miss)
-n_regfile_gating_group                    4 # group of lanes that should be read/written together)
-gpgpu_clock_gated_reg_file                    0 # enable clock gated reg file for power calculations
-gpgpu_clock_gated_lanes                    0 # enable clock gated lanes for power calculations
-gpgpu_shader_registers                32768 # Number of registers per shader core. Limits number of concurrent CTAs. (default 8192)
-gpgpu_shader_cta                       8 # Maximum number of concurrent CTAs in shader (default 8)
-gpgpu_num_cta_barriers                   16 # Maximum number of named barriers per CTA (default 16)
-gpgpu_n_clusters                      15 # number of processing clusters
-gpgpu_n_cores_per_cluster                    1 # number of simd cores per cluster
-gpgpu_n_cluster_ejection_buffer_size                    8 # number of packets in ejection buffer
-gpgpu_n_ldst_response_buffer_size                    2 # number of response packets in ld/st unit ejection buffer
-gpgpu_shmem_size                   16384 # Size of shared memory per shader core (default 16kB)
-gpgpu_shmem_size                   49152 # Size of shared memory per shader core (default 16kB)
-gpgpu_shmem_size_PrefL1                16384 # Size of shared memory per shader core (default 16kB)
-gpgpu_shmem_size_PrefShared                16384 # Size of shared memory per shader core (default 16kB)
-gpgpu_shmem_num_banks                   32 # Number of banks in the shared memory in each shader core (default 16)
-gpgpu_shmem_limited_broadcast                    0 # Limit shared memory to do one broadcast per cycle (default on)
-gpgpu_shmem_warp_parts                    1 # Number of portions a warp is divided into for shared memory bank conflict check 
-gpgpu_warpdistro_shader                   -1 # Specify which shader core to collect the warp size distribution from
-gpgpu_warp_issue_shader                    0 # Specify which shader core to collect the warp issue distribution from
-gpgpu_local_mem_map                    1 # Mapping from local memory space address to simulated GPU physical address space (default = enabled)
-gpgpu_num_reg_banks                   16 # Number of register banks (default = 8)
-gpgpu_reg_bank_use_warp_id                    0 # Use warp ID in mapping registers to banks (default = off)
-gpgpu_operand_collector_num_units_sp                    6 # number of collector units (default = 4)
-gpgpu_operand_collector_num_units_sfu                    8 # number of collector units (default = 4)
-gpgpu_operand_collector_num_units_mem                    2 # number of collector units (default = 2)
-gpgpu_operand_collector_num_units_gen                    0 # number of collector units (default = 0)
-gpgpu_operand_collector_num_in_ports_sp                    2 # number of collector unit in ports (default = 1)
-gpgpu_operand_collector_num_in_ports_sfu                    1 # number of collector unit in ports (default = 1)
-gpgpu_operand_collector_num_in_ports_mem                    1 # number of collector unit in ports (default = 1)
-gpgpu_operand_collector_num_in_ports_gen                    0 # number of collector unit in ports (default = 0)
-gpgpu_operand_collector_num_out_ports_sp                    2 # number of collector unit in ports (default = 1)
-gpgpu_operand_collector_num_out_ports_sfu                    1 # number of collector unit in ports (default = 1)
-gpgpu_operand_collector_num_out_ports_mem                    1 # number of collector unit in ports (default = 1)
-gpgpu_operand_collector_num_out_ports_gen                    0 # number of collector unit in ports (default = 0)
-gpgpu_coalesce_arch                   13 # Coalescing arch (default = 13, anything else is off for now)
-gpgpu_num_sched_per_core                    2 # Number of warp schedulers per core
-gpgpu_max_insn_issue_per_warp                    1 # Max number of instructions that can be issued per warp in one cycle by scheduler
-gpgpu_simt_core_sim_order                    1 # Select the simulation order of cores in a cluster (0=Fix, 1=Round-Robin)
-gpgpu_pipeline_widths        2,1,1,2,1,1,2 # Pipeline widths ID_OC_SP,ID_OC_SFU,ID_OC_MEM,OC_EX_SP,OC_EX_SFU,OC_EX_MEM,EX_WB
-gpgpu_num_sp_units                     2 # Number of SP units (default=1)
-gpgpu_num_sfu_units                    1 # Number of SF units (default=1)
-gpgpu_num_mem_units                    1 # Number if ldst units (default=1) WARNING: not hooked up to anything
-gpgpu_scheduler                      gto # Scheduler configuration: < lrr | gto | two_level_active > If two_level_active:<num_active_warps>:<inner_prioritization>:<outer_prioritization>For complete list of prioritization values see shader.h enum scheduler_prioritization_typeDefault: gto
-gpgpu_dram_scheduler                    1 # 0 = fifo, 1 = FR-FCFS (defaul)
-gpgpu_dram_partition_queues              8:8:8:8 # i2$:$2d:d2$:$2i
-l2_ideal                               0 # Use a ideal L2 cache that always hit
-gpgpu_cache:dl2     64:128:8,L:B:m:W:L,A:32:4,4:0,32 # unified banked L2 data cache config  {<nsets>:<bsize>:<assoc>,<rep>:<wr>:<alloc>:<wr_alloc>,<mshr>:<N>:<merge>,<mq>}
-gpgpu_cache:dl2_texture_only                    0 # L2 cache used for texture only
-gpgpu_n_mem                            6 # number of memory modules (e.g. memory controllers) in gpu
-gpgpu_n_sub_partition_per_mchannel                    2 # number of memory subpartition in each memory module
-gpgpu_n_mem_per_ctrlr                    2 # number of memory chips per memory controller
-gpgpu_memlatency_stat                   14 # track and display latency statistics 0x2 enables MC, 0x4 enables queue logs
-gpgpu_frfcfs_dram_sched_queue_size                   16 # 0 = unlimited (default); # entries per chip
-gpgpu_dram_return_queue_size                  116 # 0 = unlimited (default); # entries per chip
-gpgpu_dram_buswidth                    4 # default = 4 bytes (8 bytes per cycle at DDR)
-gpgpu_dram_burst_length                    8 # Burst length of each DRAM request (default = 4 data bus cycle)
-dram_data_command_freq_ratio                    8 # Frequency ratio between DRAM data bus and command bus (default = 2 times, i.e. DDR)
-gpgpu_dram_timing_opt nbk=16:CCD=2:RRD=6:RCD=12:RAS=28:RP=12:RC=40: CL=12:WL=4:CDLR=5:WR=12:nbkgrp=4:CCDL=3:RTPL=2 # DRAM timing parameters = {nbk:tCCD:tRRD:tRCD:tRAS:tRP:tRC:CL:WL:tCDLR:tWR:nbkgrp:tCCDL:tRTPL}
-rop_latency                          120 # ROP queue latency (default 85)
-dram_latency                         100 # DRAM latency (default 30)
-gpgpu_mem_addr_mapping dramid@8;00000000.00000000.00000000.00000000.0000RRRR.RRRRRRRR.BBBCCCCB.CCSSSSSS # mapping memory address to dram model {dramid@<start bit>;<memory address map>}
-gpgpu_mem_addr_test                    0 # run sweep test to check address mapping for aliased address
-gpgpu_mem_address_mask                    1 # 0 = old addressing mask, 1 = new addressing mask, 2 = new add. mask + flipped bank sel and chip sel bits
-gpuwattch_xml_file  gpuwattch_gtx480.xml # GPUWattch XML file
-power_simulation_enabled                    0 # Turn on power simulator (1=On, 0=Off)
-power_per_cycle_dump                    0 # Dump detailed power output each cycle
-power_trace_enabled                    0 # produce a file for the power trace (1=On, 0=Off)
-power_trace_zlevel                     6 # Compression level of the power trace output log (0=no comp, 9=highest)
-steady_power_levels_enabled                    0 # produce a file for the steady power levels (1=On, 0=Off)
-steady_state_definition                  8:4 # allowed deviation:number of samples
-gpgpu_max_cycle                        0 # terminates gpu simulation early (0 = no limit)
-gpgpu_max_insn                         0 # terminates gpu simulation early (0 = no limit)
-gpgpu_max_cta                          0 # terminates gpu simulation early (0 = no limit)
-gpgpu_runtime_stat                   500 # display runtime statistics such as dram utilization {<freq>:<flag>}
-liveness_message_freq                    1 # Minimum number of seconds between simulation liveness messages (0 = always print)
-gpgpu_flush_l1_cache                    0 # Flush L1 cache at the end of each kernel call
-gpgpu_flush_l2_cache                    0 # Flush L2 cache at the end of each kernel call
-gpgpu_deadlock_detect                    1 # Stop the simulation at deadlock (1=on (default), 0=off)
-gpgpu_ptx_instruction_classification                    0 # if enabled will classify ptx instruction types per kernel (Max 255 kernels now)
-gpgpu_ptx_sim_mode                     0 # Select between Performance (default) or Functional simulation (1)
-gpgpu_clock_domains 700.0:700.0:700.0:924.0 # Clock Domain Frequencies in MhZ {<Core Clock>:<ICNT Clock>:<L2 Clock>:<DRAM Clock>}
-gpgpu_max_concurrent_kernel                    8 # maximum kernels that can run concurrently on GPU
-gpgpu_cflog_interval                    0 # Interval between each snapshot in control flow logger
-visualizer_enabled                     0 # Turn on visualizer output (1=On, 0=Off)
-visualizer_outputfile                 NULL # Specifies the output log file for visualizer
-visualizer_zlevel                      6 # Compression level of the visualizer output log (0=no comp, 9=highest)
-trace_enabled                          0 # Turn on traces
-trace_components                    none # comma seperated list of traces to enable. Complete list found in trace_streams.tup. Default none
-trace_sampling_core                    0 # The core which is printed using CORE_DPRINTF. Default 0
-trace_sampling_memory_partition                   -1 # The memory partition which is printed using MEMPART_DPRINTF. Default -1 (i.e. all)
-enable_ptx_file_line_stats                    1 # Turn on PTX source line statistic profiling. (1 = On)
-ptx_line_stats_filename gpgpu_inst_stats.txt # Output file for PTX source line statistics.
-save_embedded_ptx                      0 # saves ptx files embedded in binary as <n>.ptx
-keep                                   0 # keep intermediate files created by GPGPU-Sim when interfacing with external programs
-gpgpu_ptx_save_converted_ptxplus                    0 # Saved converted ptxplus to a file
-ptx_opcode_latency_int         4,13,4,5,145 # Opcode latencies for integers <ADD,MAX,MUL,MAD,DIV>Default 1,1,19,25,145
-ptx_opcode_latency_fp          4,13,4,5,39 # Opcode latencies for single precision floating points <ADD,MAX,MUL,MAD,DIV>Default 1,1,1,1,30
-ptx_opcode_latency_dp         8,19,8,8,330 # Opcode latencies for double precision floating points <ADD,MAX,MUL,MAD,DIV>Default 8,8,8,8,335
-ptx_opcode_initiation_int            1,2,2,1,8 # Opcode initiation intervals for integers <ADD,MAX,MUL,MAD,DIV>Default 1,1,4,4,32
-ptx_opcode_initiation_fp            1,2,1,1,4 # Opcode initiation intervals for single precision floating points <ADD,MAX,MUL,MAD,DIV>Default 1,1,1,1,5
-ptx_opcode_initiation_dp         8,16,8,8,130 # Opcode initiation intervals for double precision floating points <ADD,MAX,MUL,MAD,DIV>Default 8,8,8,8,130
DRAM Timing Options:
nbk                                    16 # number of banks
CCD                                     2 # column to column delay
RRD                                     6 # minimal delay between activation of rows in different banks
RCD                                    12 # row to column delay
RAS                                    28 # time needed to activate row
RP                                     12 # time needed to precharge (deactivate) row
RC                                     40 # row cycle time
CDLR                                    5 # switching from write to read (changes tWTR)
WR                                     12 # last data-in to row precharge
CL                                     12 # CAS latency
WL                                      4 # Write latency
nbkgrp                                  4 # number of bank groups
CCDL                                    3 # column to column delay between accesses to different bank groups
RTPL                                    2 # read to precharge delay between accesses to different bank groups
Total number of memory sub partition = 12
addr_dec_mask[CHIP]  = 0000000000000000 	high:64 low:0
addr_dec_mask[BK]    = 000000000000e100 	high:16 low:8
addr_dec_mask[ROW]   = 000000000fff0000 	high:28 low:16
addr_dec_mask[COL]   = 0000000000001eff 	high:13 low:0
addr_dec_mask[BURST] = 000000000000003f 	high:6 low:0
sub_partition_id_mask = 0000000000000100
GPGPU-Sim uArch: clock freqs: 700000000.000000:700000000.000000:700000000.000000:924000000.000000
GPGPU-Sim uArch: clock periods: 0.00000000142857142857:0.00000000142857142857:0.00000000142857142857:0.00000000108225108225
*** Initializing Memory Statistics ***
GPGPU-Sim uArch: interconnect node map (shaderID+MemID to icntID)
GPGPU-Sim uArch: Memory nodes ID start from index: 15
GPGPU-Sim uArch:    0   1   2   3   4
GPGPU-Sim uArch:    5   6   7   8   9
GPGPU-Sim uArch:   10  11  12  13  14
GPGPU-Sim uArch:   15  16  17  18  19
GPGPU-Sim uArch:   20  21  22  23  24
GPGPU-Sim uArch:   25  26
GPGPU-Sim uArch: interconnect node reverse map (icntID to shaderID+MemID)
GPGPU-Sim uArch: Memory nodes start from ID: 15
GPGPU-Sim uArch:    0   1   2   3   4
GPGPU-Sim uArch:    5   6   7   8   9
GPGPU-Sim uArch:   10  11  12  13  14
GPGPU-Sim uArch:   15  16  17  18  19
GPGPU-Sim uArch:   20  21  22  23  24
GPGPU-Sim uArch:   25  26
e389dacb331e7fcddf4abf4a164344f1  /sciclone/data20/adwait/applications/benchmarks/CUDA/BlackScholes/gpgpu_ptx_sim__BlackScholes
GPGPU-Sim uArch: performance model initialization complete.
GPGPU-Sim PTX: __cudaRegisterFatBinary, fat_cubin_handle = 1, filename=BlackScholes.cu
self exe links to: /sciclone/data20/adwait/applications/benchmarks/CUDA/BlackScholes/gpgpu_ptx_sim__BlackScholes
Running md5sum using "md5sum /sciclone/data20/adwait/applications/benchmarks/CUDA/BlackScholes/gpgpu_ptx_sim__BlackScholes "
Parsing file _cuobjdump_complete_output_xu7cNw
######### cuobjdump parser ########
## Adding new section ELF
Adding arch: sm_20
Adding identifier: BlackScholes.cu
## Adding new section PTX
Adding ptx filename: _cuobjdump_1.ptx
Adding arch: sm_20
Adding identifier: BlackScholes.cu
Done parsing!!!
GPGPU-Sim PTX: __cudaRegisterFunction _Z15BlackScholesGPUPfS_S_S_S_ffi : hostFun 0x0x405752, fat_cubin_handle = 1
GPGPU-Sim PTX: instruction assembly for function '_Z15BlackScholesGPUPfS_S_S_S_ffi'...   done.
GPGPU-Sim PTX: finding reconvergence points for '_Z15BlackScholesGPUPfS_S_S_S_ffi'...
GPGPU-Sim PTX: Finding dominators for '_Z15BlackScholesGPUPfS_S_S_S_ffi'...
GPGPU-Sim PTX: Finding immediate dominators for '_Z15BlackScholesGPUPfS_S_S_S_ffi'...
GPGPU-Sim PTX: Finding postdominators for '_Z15BlackScholesGPUPfS_S_S_S_ffi'...
GPGPU-Sim PTX: Finding immediate postdominators for '_Z15BlackScholesGPUPfS_S_S_S_ffi'...
GPGPU-Sim PTX: pre-decoding instructions for '_Z15BlackScholesGPUPfS_S_S_S_ffi'...
GPGPU-Sim PTX: reconvergence points for _Z15BlackScholesGPUPfS_S_S_S_ffi...
GPGPU-Sim PTX:  1 (potential) branch divergence @  PC=0x040 (_1.ptx:76) @%p1 bra $Lt_0_2818;
GPGPU-Sim PTX:    immediate post dominator      @  PC=0x3f8 (_1.ptx:200) exit;
GPGPU-Sim PTX:  2 (potential) branch divergence @  PC=0x3f0 (_1.ptx:197) @%p4 bra $Lt_0_3330;
GPGPU-Sim PTX:    immediate post dominator      @  PC=0x3f8 (_1.ptx:200) exit;
GPGPU-Sim PTX: ... end of reconvergence points for _Z15BlackScholesGPUPfS_S_S_S_ffi
GPGPU-Sim PTX: ... done pre-decoding instructions for '_Z15BlackScholesGPUPfS_S_S_S_ffi'.
GPGPU-Sim PTX: finished parsing EMBEDDED .ptx file _1.ptx
Adding _cuobjdump_1.ptx with cubin handle 1
GPGPU-Sim PTX: extracting embedded .ptx to temporary file "_ptx_dqsAwO"
Running: cat _ptx_dqsAwO | sed 's/.version 1.5/.version 1.4/' | sed 's/, texmode_independent//' | sed 's/\(\.extern \.const\[1\] .b8 \w\+\)\[\]/\1\[1\]/' | sed 's/const\[.\]/const\[0\]/g' > _ptx2_HVGrT6
GPGPU-Sim PTX: generating ptxinfo using "$CUDA_INSTALL_PATH/bin/ptxas --gpu-name=sm_20 -v _ptx2_HVGrT6 --output-file  /dev/null 2> _ptx_dqsAwOinfo"
GPGPU-Sim PTX: Kernel '_Z15BlackScholesGPUPfS_S_S_S_ffi' : regs=31, lmem=0, smem=0, cmem=128
GPGPU-Sim PTX: removing ptxinfo using "rm -f _ptx_dqsAwO _ptx2_HVGrT6 _ptx_dqsAwOinfo"
GPGPU-Sim PTX: loading globals with explicit initializers... 
GPGPU-Sim PTX: finished loading globals (0 bytes total).
GPGPU-Sim PTX: loading constants with explicit initializers...  done.
Initializing data...
...allocating CPU memory for options.
...allocating GPU memory for options.
...generating input data in CPU mem.
...copying input data to GPU mem.
Data init done.
Executing Black-Scholes GPU kernel (1 iterations)...
GPGPU-Sim: synchronize waiting for inactive GPU simulation
GPGPU-Sim API: Stream Manager State
GPGPU-Sim: detected inactive GPU simulation thread

GPGPU-Sim PTX: cudaLaunch for 0x0x405752 (mode=performance simulation) on stream 0
GPGPU-Sim PTX: pushing kernel '_Z15BlackScholesGPUPfS_S_S_S_ffi' to stream 0, gridDim= (480,1,1) blockDim = (128,1,1) 
kernel '_Z15BlackScholesGPUPfS_S_S_S_ffi' transfer to GPU hardware scheduler
GPGPU-Sim uArch: Shader 1 bind to kernel 1 '_Z15BlackScholesGPUPfS_S_S_S_ffi'
GPGPU-Sim uArch: CTA/core = 8, limited by: regs cta_limit
GPGPU-Sim uArch: core:  1, cta: 0 initialized @(1,0)
GPGPU-Sim uArch: Shader 2 bind to kernel 1 '_Z15BlackScholesGPUPfS_S_S_S_ffi'
GPGPU-Sim uArch: core:  2, cta: 0 initialized @(1,0)
GPGPU-Sim uArch: Shader 3 bind to kernel 1 '_Z15BlackScholesGPUPfS_S_S_S_ffi'
GPGPU-Sim uArch: core:  3, cta: 0 initialized @(1,0)
GPGPU-Sim uArch: Shader 4 bind to kernel 1 '_Z15BlackScholesGPUPfS_S_S_S_ffi'
GPGPU-Sim uArch: core:  4, cta: 0 initialized @(1,0)
GPGPU-Sim uArch: Shader 5 bind to kernel 1 '_Z15BlackScholesGPUPfS_S_S_S_ffi'
GPGPU-Sim uArch: core:  5, cta: 0 initialized @(1,0)
GPGPU-Sim uArch: Shader 6 bind to kernel 1 '_Z15BlackScholesGPUPfS_S_S_S_ffi'
GPGPU-Sim uArch: core:  6, cta: 0 initialized @(1,0)
GPGPU-Sim uArch: Shader 7 bind to kernel 1 '_Z15BlackScholesGPUPfS_S_S_S_ffi'
GPGPU-Sim uArch: core:  7, cta: 0 initialized @(1,0)
GPGPU-Sim uArch: Shader 8 bind to kernel 1 '_Z15BlackScholesGPUPfS_S_S_S_ffi'
GPGPU-Sim uArch: core:  8, cta: 0 initialized @(1,0)
GPGPU-Sim uArch: Shader 9 bind to kernel 1 '_Z15BlackScholesGPUPfS_S_S_S_ffi'
GPGPU-Sim uArch: core:  9, cta: 0 initialized @(1,0)
GPGPU-Sim uArch: Shader 10 bind to kernel 1 '_Z15BlackScholesGPUPfS_S_S_S_ffi'
GPGPU-Sim uArch: core: 10, cta: 0 initialized @(1,0)
GPGPU-Sim uArch: Shader 11 bind to kernel 1 '_Z15BlackScholesGPUPfS_S_S_S_ffi'
GPGPU-Sim uArch: core: 11, cta: 0 initialized @(1,0)
GPGPU-Sim uArch: Shader 12 bind to kernel 1 '_Z15BlackScholesGPUPfS_S_S_S_ffi'
GPGPU-Sim uArch: core: 12, cta: 0 initialized @(1,0)
GPGPU-Sim uArch: Shader 13 bind to kernel 1 '_Z15BlackScholesGPUPfS_S_S_S_ffi'
GPGPU-Sim uArch: core: 13, cta: 0 initialized @(1,0)
GPGPU-Sim uArch: Shader 14 bind to kernel 1 '_Z15BlackScholesGPUPfS_S_S_S_ffi'
GPGPU-Sim uArch: core: 14, cta: 0 initialized @(1,0)
GPGPU-Sim uArch: Shader 0 bind to kernel 1 '_Z15BlackScholesGPUPfS_S_S_S_ffi'
GPGPU-Sim uArch: core:  0, cta: 0 initialized @(1,0)
GPGPU-Sim uArch: core:  1, cta: 1 initialized @(2,0)
GPGPU-Sim uArch: core:  2, cta: 1 initialized @(2,0)
GPGPU-Sim uArch: core:  3, cta: 1 initialized @(2,0)
GPGPU-Sim uArch: core:  4, cta: 1 initialized @(2,0)
GPGPU-Sim uArch: core:  5, cta: 1 initialized @(2,0)
GPGPU-Sim uArch: core:  6, cta: 1 initialized @(2,0)
GPGPU-Sim uArch: core:  7, cta: 1 initialized @(2,0)
GPGPU-Sim uArch: core:  8, cta: 1 initialized @(2,0)
GPGPU-Sim uArch: core:  9, cta: 1 initialized @(2,0)
GPGPU-Sim uArch: core: 10, cta: 1 initialized @(2,0)
GPGPU-Sim uArch: core: 11, cta: 1 initialized @(2,0)
GPGPU-Sim uArch: core: 12, cta: 1 initialized @(2,0)
GPGPU-Sim uArch: core: 13, cta: 1 initialized @(2,0)
GPGPU-Sim uArch: core: 14, cta: 1 initialized @(2,0)
GPGPU-Sim uArch: core:  0, cta: 1 initialized @(2,0)
GPGPU-Sim uArch: core:  1, cta: 2 initialized @(3,0)
GPGPU-Sim uArch: core:  2, cta: 2 initialized @(3,0)
GPGPU-Sim uArch: core:  3, cta: 2 initialized @(3,0)
GPGPU-Sim uArch: core:  4, cta: 2 initialized @(3,0)
GPGPU-Sim uArch: core:  5, cta: 2 initialized @(3,0)
GPGPU-Sim uArch: core:  6, cta: 2 initialized @(3,0)
GPGPU-Sim uArch: core:  7, cta: 2 initialized @(3,0)
GPGPU-Sim uArch: core:  8, cta: 2 initialized @(3,0)
GPGPU-Sim uArch: core:  9, cta: 2 initialized @(3,0)
GPGPU-Sim uArch: core: 10, cta: 2 initialized @(3,0)
GPGPU-Sim uArch: core: 11, cta: 2 initialized @(3,0)
GPGPU-Sim uArch: core: 12, cta: 2 initialized @(3,0)
GPGPU-Sim uArch: core: 13, cta: 2 initialized @(3,0)
GPGPU-Sim uArch: core: 14, cta: 2 initialized @(3,0)
GPGPU-Sim uArch: core:  0, cta: 2 initialized @(3,0)
GPGPU-Sim uArch: core:  1, cta: 3 initialized @(4,0)
GPGPU-Sim uArch: core:  2, cta: 3 initialized @(4,0)
GPGPU-Sim uArch: core:  3, cta: 3 initialized @(4,0)
GPGPU-Sim uArch: core:  4, cta: 3 initialized @(4,0)
GPGPU-Sim uArch: core:  5, cta: 3 initialized @(4,0)
GPGPU-Sim uArch: core:  6, cta: 3 initialized @(4,0)
GPGPU-Sim uArch: core:  7, cta: 3 initialized @(4,0)
GPGPU-Sim uArch: core:  8, cta: 3 initialized @(4,0)
GPGPU-Sim uArch: core:  9, cta: 3 initialized @(4,0)
GPGPU-Sim uArch: core: 10, cta: 3 initialized @(4,0)
GPGPU-Sim uArch: core: 11, cta: 3 initialized @(4,0)
GPGPU-Sim uArch: core: 12, cta: 3 initialized @(4,0)
GPGPU-Sim uArch: core: 13, cta: 3 initialized @(4,0)
GPGPU-Sim uArch: core: 14, cta: 3 initialized @(4,0)
GPGPU-Sim uArch: core:  0, cta: 3 initialized @(4,0)
GPGPU-Sim uArch: core:  1, cta: 4 initialized @(5,0)
GPGPU-Sim uArch: core:  2, cta: 4 initialized @(5,0)
GPGPU-Sim uArch: core:  3, cta: 4 initialized @(5,0)
GPGPU-Sim uArch: core:  4, cta: 4 initialized @(5,0)
GPGPU-Sim uArch: core:  5, cta: 4 initialized @(5,0)
GPGPU-Sim uArch: core:  6, cta: 4 initialized @(5,0)
GPGPU-Sim uArch: core:  7, cta: 4 initialized @(5,0)
GPGPU-Sim uArch: core:  8, cta: 4 initialized @(5,0)
GPGPU-Sim uArch: core:  9, cta: 4 initialized @(5,0)
GPGPU-Sim uArch: core: 10, cta: 4 initialized @(5,0)
GPGPU-Sim uArch: core: 11, cta: 4 initialized @(5,0)
GPGPU-Sim uArch: core: 12, cta: 4 initialized @(5,0)
GPGPU-Sim uArch: core: 13, cta: 4 initialized @(5,0)
GPGPU-Sim uArch: core: 14, cta: 4 initialized @(5,0)
GPGPU-Sim uArch: core:  0, cta: 4 initialized @(5,0)
GPGPU-Sim uArch: core:  1, cta: 5 initialized @(6,0)
GPGPU-Sim uArch: core:  2, cta: 5 initialized @(6,0)
GPGPU-Sim uArch: core:  3, cta: 5 initialized @(6,0)
GPGPU-Sim uArch: core:  4, cta: 5 initialized @(6,0)
GPGPU-Sim uArch: core:  5, cta: 5 initialized @(6,0)
GPGPU-Sim uArch: core:  6, cta: 5 initialized @(6,0)
GPGPU-Sim uArch: core:  7, cta: 5 initialized @(6,0)
GPGPU-Sim uArch: core:  8, cta: 5 initialized @(6,0)
GPGPU-Sim uArch: core:  9, cta: 5 initialized @(6,0)
GPGPU-Sim uArch: core: 10, cta: 5 initialized @(6,0)
GPGPU-Sim uArch: core: 11, cta: 5 initialized @(6,0)
GPGPU-Sim uArch: core: 12, cta: 5 initialized @(6,0)
GPGPU-Sim uArch: core: 13, cta: 5 initialized @(6,0)
GPGPU-Sim uArch: core: 14, cta: 5 initialized @(6,0)
GPGPU-Sim uArch: core:  0, cta: 5 initialized @(6,0)
GPGPU-Sim uArch: core:  1, cta: 6 initialized @(7,0)
GPGPU-Sim uArch: core:  2, cta: 6 initialized @(7,0)
GPGPU-Sim uArch: core:  3, cta: 6 initialized @(7,0)
GPGPU-Sim uArch: core:  4, cta: 6 initialized @(7,0)
GPGPU-Sim uArch: core:  5, cta: 6 initialized @(7,0)
GPGPU-Sim uArch: core:  6, cta: 6 initialized @(7,0)
GPGPU-Sim uArch: core:  7, cta: 6 initialized @(7,0)
GPGPU-Sim uArch: core:  8, cta: 6 initialized @(7,0)
GPGPU-Sim uArch: core:  9, cta: 6 initialized @(7,0)
GPGPU-Sim uArch: core: 10, cta: 6 initialized @(7,0)
GPGPU-Sim uArch: core: 11, cta: 6 initialized @(7,0)
GPGPU-Sim uArch: core: 12, cta: 6 initialized @(7,0)
GPGPU-Sim uArch: core: 13, cta: 6 initialized @(7,0)
GPGPU-Sim uArch: core: 14, cta: 6 initialized @(7,0)
GPGPU-Sim uArch: core:  0, cta: 6 initialized @(7,0)
GPGPU-Sim uArch: core:  1, cta: 7 initialized @(8,0)
GPGPU-Sim uArch: core:  2, cta: 7 initialized @(8,0)
GPGPU-Sim uArch: core:  3, cta: 7 initialized @(8,0)
GPGPU-Sim uArch: core:  4, cta: 7 initialized @(8,0)
GPGPU-Sim uArch: core:  5, cta: 7 initialized @(8,0)
GPGPU-Sim uArch: core:  6, cta: 7 initialized @(8,0)
GPGPU-Sim uArch: core:  7, cta: 7 initialized @(8,0)
GPGPU-Sim uArch: core:  8, cta: 7 initialized @(8,0)
GPGPU-Sim uArch: core:  9, cta: 7 initialized @(8,0)
GPGPU-Sim uArch: core: 10, cta: 7 initialized @(8,0)
GPGPU-Sim uArch: core: 11, cta: 7 initialized @(8,0)
GPGPU-Sim uArch: core: 12, cta: 7 initialized @(8,0)
GPGPU-Sim uArch: core: 13, cta: 7 initialized @(8,0)
GPGPU-Sim uArch: core: 14, cta: 7 initialized @(8,0)
GPGPU-Sim uArch: core:  0, cta: 7 initialized @(8,0)
GPGPU-Sim PTX: 100000 instructions simulated : ctaid=(27,0,0) tid=(95,0,0)
GPGPU-Sim uArch: cycles simulated: 500  inst.: 92160 (ipc=184.3) sim_rate=92160 (inst/sec) elapsed = 0:0:00:01 / Wed Mar  2 01:16:44 2016
GPGPU-Sim PTX: 200000 instructions simulated : ctaid=(94,0,0) tid=(95,0,0)
GPGPU-Sim uArch: cycles simulated: 1000  inst.: 238272 (ipc=238.3) sim_rate=119136 (inst/sec) elapsed = 0:0:00:02 / Wed Mar  2 01:16:45 2016
GPGPU-Sim PTX: 300000 instructions simulated : ctaid=(53,0,0) tid=(127,0,0)
GPGPU-Sim PTX: 400000 instructions simulated : ctaid=(70,0,0) tid=(127,0,0)
GPGPU-Sim PTX: 500000 instructions simulated : ctaid=(33,0,0) tid=(31,0,0)
GPGPU-Sim PTX: 600000 instructions simulated : ctaid=(63,0,0) tid=(95,0,0)
GPGPU-Sim uArch: cycles simulated: 2500  inst.: 605152 (ipc=242.1) sim_rate=201717 (inst/sec) elapsed = 0:0:00:03 / Wed Mar  2 01:16:46 2016
GPGPU-Sim PTX: 700000 instructions simulated : ctaid=(34,0,0) tid=(95,0,0)
GPGPU-Sim PTX: 800000 instructions simulated : ctaid=(93,0,0) tid=(31,0,0)
GPGPU-Sim PTX: 900000 instructions simulated : ctaid=(11,0,0) tid=(127,0,0)
GPGPU-Sim PTX: 1000000 instructions simulated : ctaid=(16,0,0) tid=(63,0,0)
GPGPU-Sim PTX: 1100000 instructions simulated : ctaid=(70,0,0) tid=(127,0,0)
GPGPU-Sim uArch: cycles simulated: 3500  inst.: 1153248 (ipc=329.5) sim_rate=288312 (inst/sec) elapsed = 0:0:00:04 / Wed Mar  2 01:16:47 2016
GPGPU-Sim PTX: 1200000 instructions simulated : ctaid=(38,0,0) tid=(31,0,0)
GPGPU-Sim PTX: 1300000 instructions simulated : ctaid=(37,0,0) tid=(31,0,0)
GPGPU-Sim PTX: 1400000 instructions simulated : ctaid=(57,0,0) tid=(127,0,0)
GPGPU-Sim PTX: 1500000 instructions simulated : ctaid=(59,0,0) tid=(31,0,0)
GPGPU-Sim uArch: cycles simulated: 4000  inst.: 1546368 (ipc=386.6) sim_rate=309273 (inst/sec) elapsed = 0:0:00:05 / Wed Mar  2 01:16:48 2016
GPGPU-Sim PTX: 1600000 instructions simulated : ctaid=(52,0,0) tid=(95,0,0)
GPGPU-Sim PTX: 1700000 instructions simulated : ctaid=(105,0,0) tid=(127,0,0)
GPGPU-Sim PTX: 1800000 instructions simulated : ctaid=(95,0,0) tid=(63,0,0)
GPGPU-Sim PTX: 1900000 instructions simulated : ctaid=(12,0,0) tid=(95,0,0)
GPGPU-Sim PTX: 2000000 instructions simulated : ctaid=(4,0,0) tid=(31,0,0)
GPGPU-Sim PTX: 2100000 instructions simulated : ctaid=(14,0,0) tid=(31,0,0)
GPGPU-Sim uArch: cycles simulated: 5500  inst.: 2083072 (ipc=378.7) sim_rate=347178 (inst/sec) elapsed = 0:0:00:06 / Wed Mar  2 01:16:49 2016
GPGPU-Sim PTX: 2200000 instructions simulated : ctaid=(20,0,0) tid=(95,0,0)
GPGPU-Sim PTX: 2300000 instructions simulated : ctaid=(49,0,0) tid=(95,0,0)
GPGPU-Sim PTX: 2400000 instructions simulated : ctaid=(1,0,0) tid=(95,0,0)
GPGPU-Sim uArch: cycles simulated: 6000  inst.: 2432960 (ipc=405.5) sim_rate=347565 (inst/sec) elapsed = 0:0:00:07 / Wed Mar  2 01:16:50 2016
GPGPU-Sim PTX: 2500000 instructions simulated : ctaid=(65,0,0) tid=(127,0,0)
GPGPU-Sim PTX: 2600000 instructions simulated : ctaid=(84,0,0) tid=(31,0,0)
GPGPU-Sim PTX: 2700000 instructions simulated : ctaid=(34,0,0) tid=(63,0,0)
GPGPU-Sim PTX: 2800000 instructions simulated : ctaid=(93,0,0) tid=(95,0,0)
GPGPU-Sim PTX: 2900000 instructions simulated : ctaid=(81,0,0) tid=(31,0,0)
GPGPU-Sim PTX: 3000000 instructions simulated : ctaid=(110,0,0) tid=(31,0,0)
GPGPU-Sim PTX: 3100000 instructions simulated : ctaid=(55,0,0) tid=(127,0,0)
GPGPU-Sim uArch: cycles simulated: 7000  inst.: 3102912 (ipc=443.3) sim_rate=387864 (inst/sec) elapsed = 0:0:00:08 / Wed Mar  2 01:16:51 2016
GPGPU-Sim PTX: 3200000 instructions simulated : ctaid=(114,0,0) tid=(31,0,0)
GPGPU-Sim PTX: 3300000 instructions simulated : ctaid=(94,0,0) tid=(63,0,0)
GPGPU-Sim PTX: 3400000 instructions simulated : ctaid=(20,0,0) tid=(31,0,0)
GPGPU-Sim PTX: 3500000 instructions simulated : ctaid=(113,0,0) tid=(95,0,0)
GPGPU-Sim PTX: 3600000 instructions simulated : ctaid=(45,0,0) tid=(31,0,0)
GPGPU-Sim PTX: 3700000 instructions simulated : ctaid=(0,0,0) tid=(127,0,0)
GPGPU-Sim uArch: cycles simulated: 8000  inst.: 3719360 (ipc=464.9) sim_rate=413262 (inst/sec) elapsed = 0:0:00:09 / Wed Mar  2 01:16:52 2016
GPGPU-Sim PTX: 3800000 instructions simulated : ctaid=(8,0,0) tid=(95,0,0)
GPGPU-Sim PTX: 3900000 instructions simulated : ctaid=(19,0,0) tid=(31,0,0)
GPGPU-Sim PTX: 4000000 instructions simulated : ctaid=(38,0,0) tid=(31,0,0)
GPGPU-Sim PTX: 4100000 instructions simulated : ctaid=(4,0,0) tid=(31,0,0)
GPGPU-Sim PTX: 4200000 instructions simulated : ctaid=(4,0,0) tid=(95,0,0)
GPGPU-Sim PTX: 4300000 instructions simulated : ctaid=(55,0,0) tid=(127,0,0)
GPGPU-Sim uArch: cycles simulated: 9000  inst.: 4275744 (ipc=475.1) sim_rate=427574 (inst/sec) elapsed = 0:0:00:10 / Wed Mar  2 01:16:53 2016
GPGPU-Sim PTX: 4400000 instructions simulated : ctaid=(9,0,0) tid=(95,0,0)
GPGPU-Sim PTX: 4500000 instructions simulated : ctaid=(33,0,0) tid=(31,0,0)
GPGPU-Sim PTX: 4600000 instructions simulated : ctaid=(27,0,0) tid=(95,0,0)
GPGPU-Sim uArch: cycles simulated: 9500  inst.: 4567680 (ipc=480.8) sim_rate=415243 (inst/sec) elapsed = 0:0:00:11 / Wed Mar  2 01:16:54 2016
GPGPU-Sim PTX: 4700000 instructions simulated : ctaid=(26,0,0) tid=(95,0,0)
GPGPU-Sim PTX: 4800000 instructions simulated : ctaid=(0,0,0) tid=(31,0,0)
GPGPU-Sim PTX: 4900000 instructions simulated : ctaid=(44,0,0) tid=(127,0,0)
GPGPU-Sim PTX: 5000000 instructions simulated : ctaid=(31,0,0) tid=(31,0,0)
GPGPU-Sim PTX: 5100000 instructions simulated : ctaid=(54,0,0) tid=(31,0,0)
GPGPU-Sim PTX: 5200000 instructions simulated : ctaid=(87,0,0) tid=(31,0,0)
GPGPU-Sim uArch: cycles simulated: 10500  inst.: 5162208 (ipc=491.6) sim_rate=430184 (inst/sec) elapsed = 0:0:00:12 / Wed Mar  2 01:16:55 2016
GPGPU-Sim PTX: 5300000 instructions simulated : ctaid=(71,0,0) tid=(95,0,0)
GPGPU-Sim PTX: 5400000 instructions simulated : ctaid=(84,0,0) tid=(63,0,0)
GPGPU-Sim PTX: 5500000 instructions simulated : ctaid=(76,0,0) tid=(95,0,0)
GPGPU-Sim PTX: 5600000 instructions simulated : ctaid=(40,0,0) tid=(31,0,0)
GPGPU-Sim PTX: 5700000 instructions simulated : ctaid=(119,0,0) tid=(95,0,0)
GPGPU-Sim uArch: cycles simulated: 11500  inst.: 5754208 (ipc=500.4) sim_rate=442631 (inst/sec) elapsed = 0:0:00:13 / Wed Mar  2 01:16:56 2016
GPGPU-Sim PTX: 5800000 instructions simulated : ctaid=(9,0,0) tid=(31,0,0)
GPGPU-Sim PTX: 5900000 instructions simulated : ctaid=(41,0,0) tid=(127,0,0)
GPGPU-Sim PTX: 6000000 instructions simulated : ctaid=(11,0,0) tid=(127,0,0)
GPGPU-Sim PTX: 6100000 instructions simulated : ctaid=(50,0,0) tid=(31,0,0)
GPGPU-Sim PTX: 6200000 instructions simulated : ctaid=(48,0,0) tid=(127,0,0)
GPGPU-Sim PTX: 6300000 instructions simulated : ctaid=(6,0,0) tid=(95,0,0)
GPGPU-Sim PTX: 6400000 instructions simulated : ctaid=(2,0,0) tid=(31,0,0)
GPGPU-Sim uArch: cycles simulated: 12500  inst.: 6371456 (ipc=509.7) sim_rate=455104 (inst/sec) elapsed = 0:0:00:14 / Wed Mar  2 01:16:57 2016
GPGPU-Sim PTX: 6500000 instructions simulated : ctaid=(98,0,0) tid=(95,0,0)
GPGPU-Sim PTX: 6600000 instructions simulated : ctaid=(17,0,0) tid=(31,0,0)
GPGPU-Sim PTX: 6700000 instructions simulated : ctaid=(6,0,0) tid=(63,0,0)
GPGPU-Sim uArch: cycles simulated: 13000  inst.: 6675520 (ipc=513.5) sim_rate=445034 (inst/sec) elapsed = 0:0:00:15 / Wed Mar  2 01:16:58 2016
GPGPU-Sim PTX: 6800000 instructions simulated : ctaid=(28,0,0) tid=(63,0,0)
GPGPU-Sim PTX: 6900000 instructions simulated : ctaid=(104,0,0) tid=(95,0,0)
GPGPU-Sim PTX: 7000000 instructions simulated : ctaid=(29,0,0) tid=(127,0,0)
GPGPU-Sim PTX: 7100000 instructions simulated : ctaid=(44,0,0) tid=(63,0,0)
GPGPU-Sim PTX: 7200000 instructions simulated : ctaid=(21,0,0) tid=(127,0,0)
GPGPU-Sim PTX: 7300000 instructions simulated : ctaid=(72,0,0) tid=(127,0,0)
GPGPU-Sim uArch: cycles simulated: 14000  inst.: 7291936 (ipc=520.9) sim_rate=455746 (inst/sec) elapsed = 0:0:00:16 / Wed Mar  2 01:16:59 2016
GPGPU-Sim PTX: 7400000 instructions simulated : ctaid=(89,0,0) tid=(31,0,0)
GPGPU-Sim PTX: 7500000 instructions simulated : ctaid=(99,0,0) tid=(95,0,0)
GPGPU-Sim PTX: 7600000 instructions simulated : ctaid=(75,0,0) tid=(31,0,0)
GPGPU-Sim PTX: 7700000 instructions simulated : ctaid=(47,0,0) tid=(127,0,0)
GPGPU-Sim PTX: 7800000 instructions simulated : ctaid=(42,0,0) tid=(95,0,0)
GPGPU-Sim PTX: 7900000 instructions simulated : ctaid=(54,0,0) tid=(127,0,0)
GPGPU-Sim uArch: cycles simulated: 15000  inst.: 7912192 (ipc=527.5) sim_rate=465423 (inst/sec) elapsed = 0:0:00:17 / Wed Mar  2 01:17:00 2016
GPGPU-Sim PTX: 8000000 instructions simulated : ctaid=(55,0,0) tid=(63,0,0)
GPGPU-Sim PTX: 8100000 instructions simulated : ctaid=(47,0,0) tid=(127,0,0)
GPGPU-Sim PTX: 8200000 instructions simulated : ctaid=(21,0,0) tid=(95,0,0)
GPGPU-Sim uArch: cycles simulated: 15500  inst.: 8214144 (ipc=529.9) sim_rate=456341 (inst/sec) elapsed = 0:0:00:18 / Wed Mar  2 01:17:01 2016
GPGPU-Sim PTX: 8300000 instructions simulated : ctaid=(65,0,0) tid=(127,0,0)
GPGPU-Sim PTX: 8400000 instructions simulated : ctaid=(30,0,0) tid=(95,0,0)
GPGPU-Sim PTX: 8500000 instructions simulated : ctaid=(19,0,0) tid=(63,0,0)
GPGPU-Sim PTX: 8600000 instructions simulated : ctaid=(53,0,0) tid=(127,0,0)
GPGPU-Sim PTX: 8700000 instructions simulated : ctaid=(93,0,0) tid=(63,0,0)
GPGPU-Sim PTX: 8800000 instructions simulated : ctaid=(28,0,0) tid=(31,0,0)
GPGPU-Sim uArch: cycles simulated: 16500  inst.: 8833312 (ipc=535.4) sim_rate=464911 (inst/sec) elapsed = 0:0:00:19 / Wed Mar  2 01:17:02 2016
GPGPU-Sim PTX: 8900000 instructions simulated : ctaid=(64,0,0) tid=(31,0,0)
GPGPU-Sim PTX: 9000000 instructions simulated : ctaid=(28,0,0) tid=(31,0,0)
GPGPU-Sim PTX: 9100000 instructions simulated : ctaid=(42,0,0) tid=(63,0,0)
GPGPU-Sim PTX: 9200000 instructions simulated : ctaid=(97,0,0) tid=(95,0,0)
GPGPU-Sim PTX: 9300000 instructions simulated : ctaid=(22,0,0) tid=(31,0,0)
GPGPU-Sim PTX: 9400000 instructions simulated : ctaid=(63,0,0) tid=(31,0,0)
GPGPU-Sim PTX: 9500000 instructions simulated : ctaid=(14,0,0) tid=(31,0,0)
GPGPU-Sim uArch: cycles simulated: 17500  inst.: 9469248 (ipc=541.1) sim_rate=473462 (inst/sec) elapsed = 0:0:00:20 / Wed Mar  2 01:17:03 2016
GPGPU-Sim PTX: 9600000 instructions simulated : ctaid=(32,0,0) tid=(31,0,0)
GPGPU-Sim PTX: 9700000 instructions simulated : ctaid=(63,0,0) tid=(63,0,0)
GPGPU-Sim PTX: 9800000 instructions simulated : ctaid=(16,0,0) tid=(95,0,0)
GPGPU-Sim uArch: cycles simulated: 18000  inst.: 9788544 (ipc=543.8) sim_rate=466121 (inst/sec) elapsed = 0:0:00:21 / Wed Mar  2 01:17:04 2016
GPGPU-Sim PTX: 9900000 instructions simulated : ctaid=(18,0,0) tid=(31,0,0)
GPGPU-Sim PTX: 10000000 instructions simulated : ctaid=(48,0,0) tid=(127,0,0)
GPGPU-Sim PTX: 10100000 instructions simulated : ctaid=(64,0,0) tid=(95,0,0)
GPGPU-Sim PTX: 10200000 instructions simulated : ctaid=(64,0,0) tid=(95,0,0)
GPGPU-Sim PTX: 10300000 instructions simulated : ctaid=(119,0,0) tid=(63,0,0)
GPGPU-Sim PTX: 10400000 instructions simulated : ctaid=(86,0,0) tid=(31,0,0)
GPGPU-Sim uArch: cycles simulated: 19000  inst.: 10397600 (ipc=547.2) sim_rate=472618 (inst/sec) elapsed = 0:0:00:22 / Wed Mar  2 01:17:05 2016
GPGPU-Sim PTX: 10500000 instructions simulated : ctaid=(47,0,0) tid=(127,0,0)
GPGPU-Sim PTX: 10600000 instructions simulated : ctaid=(43,0,0) tid=(31,0,0)
GPGPU-Sim PTX: 10700000 instructions simulated : ctaid=(86,0,0) tid=(127,0,0)
GPGPU-Sim PTX: 10800000 instructions simulated : ctaid=(52,0,0) tid=(31,0,0)
GPGPU-Sim PTX: 10900000 instructions simulated : ctaid=(66,0,0) tid=(127,0,0)
GPGPU-Sim PTX: 11000000 instructions simulated : ctaid=(54,0,0) tid=(63,0,0)
GPGPU-Sim uArch: cycles simulated: 20000  inst.: 10989344 (ipc=549.5) sim_rate=477797 (inst/sec) elapsed = 0:0:00:23 / Wed Mar  2 01:17:06 2016
GPGPU-Sim PTX: 11100000 instructions simulated : ctaid=(29,0,0) tid=(31,0,0)
GPGPU-Sim PTX: 11200000 instructions simulated : ctaid=(26,0,0) tid=(31,0,0)
GPGPU-Sim PTX: 11300000 instructions simulated : ctaid=(60,0,0) tid=(31,0,0)
GPGPU-Sim PTX: 11400000 instructions simulated : ctaid=(43,0,0) tid=(63,0,0)
GPGPU-Sim PTX: 11500000 instructions simulated : ctaid=(60,0,0) tid=(127,0,0)
GPGPU-Sim PTX: 11600000 instructions simulated : ctaid=(2,0,0) tid=(95,0,0)
GPGPU-Sim uArch: cycles simulated: 21000  inst.: 11610400 (ipc=552.9) sim_rate=483766 (inst/sec) elapsed = 0:0:00:24 / Wed Mar  2 01:17:07 2016
GPGPU-Sim PTX: 11700000 instructions simulated : ctaid=(83,0,0) tid=(31,0,0)
GPGPU-Sim PTX: 11800000 instructions simulated : ctaid=(0,0,0) tid=(127,0,0)
GPGPU-Sim PTX: 11900000 instructions simulated : ctaid=(9,0,0) tid=(31,0,0)
GPGPU-Sim uArch: cycles simulated: 21500  inst.: 11927520 (ipc=554.8) sim_rate=477100 (inst/sec) elapsed = 0:0:00:25 / Wed Mar  2 01:17:08 2016
GPGPU-Sim PTX: 12000000 instructions simulated : ctaid=(50,0,0) tid=(63,0,0)
GPGPU-Sim PTX: 12100000 instructions simulated : ctaid=(113,0,0) tid=(95,0,0)
GPGPU-Sim PTX: 12200000 instructions simulated : ctaid=(53,0,0) tid=(63,0,0)
GPGPU-Sim PTX: 12300000 instructions simulated : ctaid=(41,0,0) tid=(63,0,0)
GPGPU-Sim PTX: 12400000 instructions simulated : ctaid=(72,0,0) tid=(127,0,0)
GPGPU-Sim PTX: 12500000 instructions simulated : ctaid=(49,0,0) tid=(95,0,0)
GPGPU-Sim uArch: cycles simulated: 22500  inst.: 12525472 (ipc=556.7) sim_rate=481748 (inst/sec) elapsed = 0:0:00:26 / Wed Mar  2 01:17:09 2016
GPGPU-Sim PTX: 12600000 instructions simulated : ctaid=(30,0,0) tid=(127,0,0)
GPGPU-Sim PTX: 12700000 instructions simulated : ctaid=(12,0,0) tid=(95,0,0)
GPGPU-Sim PTX: 12800000 instructions simulated : ctaid=(4,0,0) tid=(95,0,0)
GPGPU-Sim PTX: 12900000 instructions simulated : ctaid=(38,0,0) tid=(63,0,0)
GPGPU-Sim PTX: 13000000 instructions simulated : ctaid=(110,0,0) tid=(95,0,0)
GPGPU-Sim PTX: 13100000 instructions simulated : ctaid=(71,0,0) tid=(63,0,0)
GPGPU-Sim PTX: 13200000 instructions simulated : ctaid=(85,0,0) tid=(31,0,0)
GPGPU-Sim uArch: cycles simulated: 23500  inst.: 13163360 (ipc=560.1) sim_rate=487531 (inst/sec) elapsed = 0:0:00:27 / Wed Mar  2 01:17:10 2016
GPGPU-Sim PTX: 13300000 instructions simulated : ctaid=(21,0,0) tid=(127,0,0)
GPGPU-Sim PTX: 13400000 instructions simulated : ctaid=(70,0,0) tid=(63,0,0)
GPGPU-Sim uArch: cycles simulated: 24000  inst.: 13460992 (ipc=560.9) sim_rate=480749 (inst/sec) elapsed = 0:0:00:28 / Wed Mar  2 01:17:11 2016
GPGPU-Sim PTX: 13500000 instructions simulated : ctaid=(21,0,0) tid=(63,0,0)
GPGPU-Sim PTX: 13600000 instructions simulated : ctaid=(54,0,0) tid=(31,0,0)
GPGPU-Sim PTX: 13700000 instructions simulated : ctaid=(15,0,0) tid=(95,0,0)
GPGPU-Sim PTX: 13800000 instructions simulated : ctaid=(56,0,0) tid=(31,0,0)
GPGPU-Sim PTX: 13900000 instructions simulated : ctaid=(67,0,0) tid=(31,0,0)
GPGPU-Sim PTX: 14000000 instructions simulated : ctaid=(81,0,0) tid=(63,0,0)
GPGPU-Sim uArch: cycles simulated: 25000  inst.: 14059776 (ipc=562.4) sim_rate=484819 (inst/sec) elapsed = 0:0:00:29 / Wed Mar  2 01:17:12 2016
GPGPU-Sim PTX: 14100000 instructions simulated : ctaid=(96,0,0) tid=(63,0,0)
GPGPU-Sim PTX: 14200000 instructions simulated : ctaid=(25,0,0) tid=(127,0,0)
GPGPU-Sim PTX: 14300000 instructions simulated : ctaid=(56,0,0) tid=(63,0,0)
GPGPU-Sim PTX: 14400000 instructions simulated : ctaid=(75,0,0) tid=(95,0,0)
GPGPU-Sim PTX: 14500000 instructions simulated : ctaid=(107,0,0) tid=(95,0,0)
GPGPU-Sim PTX: 14600000 instructions simulated : ctaid=(14,0,0) tid=(31,0,0)
GPGPU-Sim PTX: 14700000 instructions simulated : ctaid=(61,0,0) tid=(95,0,0)
GPGPU-Sim uArch: cycles simulated: 26000  inst.: 14674336 (ipc=564.4) sim_rate=489144 (inst/sec) elapsed = 0:0:00:30 / Wed Mar  2 01:17:13 2016
GPGPU-Sim PTX: 14800000 instructions simulated : ctaid=(102,0,0) tid=(31,0,0)
GPGPU-Sim PTX: 14900000 instructions simulated : ctaid=(70,0,0) tid=(63,0,0)
GPGPU-Sim PTX: 15000000 instructions simulated : ctaid=(73,0,0) tid=(127,0,0)
GPGPU-Sim PTX: 15100000 instructions simulated : ctaid=(44,0,0) tid=(63,0,0)
GPGPU-Sim PTX: 15200000 instructions simulated : ctaid=(82,0,0) tid=(31,0,0)
GPGPU-Sim uArch: cycles simulated: 27000  inst.: 15259840 (ipc=565.2) sim_rate=492252 (inst/sec) elapsed = 0:0:00:31 / Wed Mar  2 01:17:14 2016
GPGPU-Sim PTX: 15300000 instructions simulated : ctaid=(28,0,0) tid=(95,0,0)
GPGPU-Sim PTX: 15400000 instructions simulated : ctaid=(47,0,0) tid=(95,0,0)
GPGPU-Sim PTX: 15500000 instructions simulated : ctaid=(18,0,0) tid=(63,0,0)
GPGPU-Sim uArch: cycles simulated: 27500  inst.: 15555264 (ipc=565.6) sim_rate=486102 (inst/sec) elapsed = 0:0:00:32 / Wed Mar  2 01:17:15 2016
GPGPU-Sim PTX: 15600000 instructions simulated : ctaid=(114,0,0) tid=(31,0,0)
GPGPU-Sim PTX: 15700000 instructions simulated : ctaid=(78,0,0) tid=(95,0,0)
GPGPU-Sim PTX: 15800000 instructions simulated : ctaid=(9,0,0) tid=(95,0,0)
GPGPU-Sim PTX: 15900000 instructions simulated : ctaid=(64,0,0) tid=(127,0,0)
GPGPU-Sim PTX: 16000000 instructions simulated : ctaid=(8,0,0) tid=(95,0,0)
GPGPU-Sim PTX: 16100000 instructions simulated : ctaid=(53,0,0) tid=(127,0,0)
GPGPU-Sim PTX: 16200000 instructions simulated : ctaid=(115,0,0) tid=(31,0,0)
GPGPU-Sim uArch: cycles simulated: 28500  inst.: 16174656 (ipc=567.5) sim_rate=490141 (inst/sec) elapsed = 0:0:00:33 / Wed Mar  2 01:17:16 2016
GPGPU-Sim PTX: 16300000 instructions simulated : ctaid=(31,0,0) tid=(95,0,0)
GPGPU-Sim PTX: 16400000 instructions simulated : ctaid=(18,0,0) tid=(31,0,0)
GPGPU-Sim PTX: 16500000 instructions simulated : ctaid=(95,0,0) tid=(95,0,0)
GPGPU-Sim PTX: 16600000 instructions simulated : ctaid=(87,0,0) tid=(95,0,0)
GPGPU-Sim PTX: 16700000 instructions simulated : ctaid=(63,0,0) tid=(95,0,0)
GPGPU-Sim PTX: 16800000 instructions simulated : ctaid=(18,0,0) tid=(63,0,0)
GPGPU-Sim uArch: cycles simulated: 29500  inst.: 16795424 (ipc=569.3) sim_rate=493983 (inst/sec) elapsed = 0:0:00:34 / Wed Mar  2 01:17:17 2016
GPGPU-Sim PTX: 16900000 instructions simulated : ctaid=(75,0,0) tid=(95,0,0)
GPGPU-Sim PTX: 17000000 instructions simulated : ctaid=(2,0,0) tid=(63,0,0)
GPGPU-Sim PTX: 17100000 instructions simulated : ctaid=(67,0,0) tid=(63,0,0)
GPGPU-Sim uArch: cycles simulated: 30000  inst.: 17092736 (ipc=569.8) sim_rate=488363 (inst/sec) elapsed = 0:0:00:35 / Wed Mar  2 01:17:18 2016
GPGPU-Sim PTX: 17200000 instructions simulated : ctaid=(64,0,0) tid=(95,0,0)
GPGPU-Sim PTX: 17300000 instructions simulated : ctaid=(27,0,0) tid=(95,0,0)
GPGPU-Sim PTX: 17400000 instructions simulated : ctaid=(55,0,0) tid=(127,0,0)
GPGPU-Sim PTX: 17500000 instructions simulated : ctaid=(61,0,0) tid=(127,0,0)
GPGPU-Sim PTX: 17600000 instructions simulated : ctaid=(37,0,0) tid=(127,0,0)
GPGPU-Sim PTX: 17700000 instructions simulated : ctaid=(18,0,0) tid=(127,0,0)
GPGPU-Sim uArch: cycles simulated: 31000  inst.: 17706784 (ipc=571.2) sim_rate=491855 (inst/sec) elapsed = 0:0:00:36 / Wed Mar  2 01:17:19 2016
GPGPU-Sim PTX: 17800000 instructions simulated : ctaid=(36,0,0) tid=(95,0,0)
GPGPU-Sim PTX: 17900000 instructions simulated : ctaid=(24,0,0) tid=(31,0,0)
GPGPU-Sim PTX: 18000000 instructions simulated : ctaid=(66,0,0) tid=(31,0,0)
GPGPU-Sim PTX: 18100000 instructions simulated : ctaid=(82,0,0) tid=(31,0,0)
GPGPU-Sim PTX: 18200000 instructions simulated : ctaid=(17,0,0) tid=(63,0,0)
GPGPU-Sim PTX: 18300000 instructions simulated : ctaid=(17,0,0) tid=(63,0,0)
GPGPU-Sim uArch: cycles simulated: 32000  inst.: 18308000 (ipc=572.1) sim_rate=494810 (inst/sec) elapsed = 0:0:00:37 / Wed Mar  2 01:17:20 2016
GPGPU-Sim PTX: 18400000 instructions simulated : ctaid=(6,0,0) tid=(63,0,0)
GPGPU-Sim PTX: 18500000 instructions simulated : ctaid=(4,0,0) tid=(31,0,0)
GPGPU-Sim PTX: 18600000 instructions simulated : ctaid=(31,0,0) tid=(127,0,0)
GPGPU-Sim PTX: 18700000 instructions simulated : ctaid=(83,0,0) tid=(31,0,0)
GPGPU-Sim PTX: 18800000 instructions simulated : ctaid=(33,0,0) tid=(63,0,0)
GPGPU-Sim PTX: 18900000 instructions simulated : ctaid=(8,0,0) tid=(63,0,0)
GPGPU-Sim uArch: cycles simulated: 33000  inst.: 18934464 (ipc=573.8) sim_rate=498275 (inst/sec) elapsed = 0:0:00:38 / Wed Mar  2 01:17:21 2016
GPGPU-Sim PTX: 19000000 instructions simulated : ctaid=(20,0,0) tid=(63,0,0)
GPGPU-Sim PTX: 19100000 instructions simulated : ctaid=(2,0,0) tid=(31,0,0)
GPGPU-Sim PTX: 19200000 instructions simulated : ctaid=(42,0,0) tid=(31,0,0)
GPGPU-Sim uArch: cycles simulated: 33500  inst.: 19249408 (ipc=574.6) sim_rate=493574 (inst/sec) elapsed = 0:0:00:39 / Wed Mar  2 01:17:22 2016
GPGPU-Sim PTX: 19300000 instructions simulated : ctaid=(65,0,0) tid=(95,0,0)
GPGPU-Sim PTX: 19400000 instructions simulated : ctaid=(115,0,0) tid=(127,0,0)
GPGPU-Sim PTX: 19500000 instructions simulated : ctaid=(77,0,0) tid=(31,0,0)
GPGPU-Sim PTX: 19600000 instructions simulated : ctaid=(69,0,0) tid=(127,0,0)
GPGPU-Sim PTX: 19700000 instructions simulated : ctaid=(101,0,0) tid=(63,0,0)
GPGPU-Sim PTX: 19800000 instructions simulated : ctaid=(35,0,0) tid=(63,0,0)
GPGPU-Sim uArch: cycles simulated: 34500  inst.: 19855648 (ipc=575.5) sim_rate=496391 (inst/sec) elapsed = 0:0:00:40 / Wed Mar  2 01:17:23 2016
GPGPU-Sim PTX: 19900000 instructions simulated : ctaid=(95,0,0) tid=(31,0,0)
GPGPU-Sim PTX: 20000000 instructions simulated : ctaid=(4,0,0) tid=(95,0,0)
GPGPU-Sim PTX: 20100000 instructions simulated : ctaid=(71,0,0) tid=(63,0,0)
GPGPU-Sim PTX: 20200000 instructions simulated : ctaid=(94,0,0) tid=(95,0,0)
GPGPU-Sim PTX: 20300000 instructions simulated : ctaid=(106,0,0) tid=(63,0,0)
GPGPU-Sim PTX: 20400000 instructions simulated : ctaid=(10,0,0) tid=(31,0,0)
GPGPU-Sim uArch: cycles simulated: 35500  inst.: 20447936 (ipc=576.0) sim_rate=498730 (inst/sec) elapsed = 0:0:00:41 / Wed Mar  2 01:17:24 2016
GPGPU-Sim PTX: 20500000 instructions simulated : ctaid=(75,0,0) tid=(31,0,0)
GPGPU-Sim PTX: 20600000 instructions simulated : ctaid=(19,0,0) tid=(31,0,0)
GPGPU-Sim PTX: 20700000 instructions simulated : ctaid=(55,0,0) tid=(95,0,0)
GPGPU-Sim PTX: 20800000 instructions simulated : ctaid=(8,0,0) tid=(95,0,0)
GPGPU-Sim PTX: 20900000 instructions simulated : ctaid=(98,0,0) tid=(95,0,0)
GPGPU-Sim PTX: 21000000 instructions simulated : ctaid=(47,0,0) tid=(31,0,0)
GPGPU-Sim uArch: cycles simulated: 36500  inst.: 21020000 (ipc=575.9) sim_rate=500476 (inst/sec) elapsed = 0:0:00:42 / Wed Mar  2 01:17:25 2016
GPGPU-Sim PTX: 21100000 instructions simulated : ctaid=(61,0,0) tid=(63,0,0)
GPGPU-Sim PTX: 21200000 instructions simulated : ctaid=(28,0,0) tid=(31,0,0)
GPGPU-Sim PTX: 21300000 instructions simulated : ctaid=(36,0,0) tid=(127,0,0)
GPGPU-Sim uArch: cycles simulated: 37000  inst.: 21296384 (ipc=575.6) sim_rate=495264 (inst/sec) elapsed = 0:0:00:43 / Wed Mar  2 01:17:26 2016
GPGPU-Sim PTX: 21400000 instructions simulated : ctaid=(27,0,0) tid=(95,0,0)
GPGPU-Sim PTX: 21500000 instructions simulated : ctaid=(31,0,0) tid=(63,0,0)
GPGPU-Sim PTX: 21600000 instructions simulated : ctaid=(93,0,0) tid=(127,0,0)
GPGPU-Sim PTX: 21700000 instructions simulated : ctaid=(13,0,0) tid=(31,0,0)
GPGPU-Sim PTX: 21800000 instructions simulated : ctaid=(72,0,0) tid=(63,0,0)
GPGPU-Sim PTX: 21900000 instructions simulated : ctaid=(24,0,0) tid=(31,0,0)
GPGPU-Sim uArch: cycles simulated: 38000  inst.: 21919008 (ipc=576.8) sim_rate=498159 (inst/sec) elapsed = 0:0:00:44 / Wed Mar  2 01:17:27 2016
GPGPU-Sim PTX: 22000000 instructions simulated : ctaid=(48,0,0) tid=(31,0,0)
GPGPU-Sim PTX: 22100000 instructions simulated : ctaid=(0,0,0) tid=(127,0,0)
GPGPU-Sim PTX: 22200000 instructions simulated : ctaid=(73,0,0) tid=(127,0,0)
GPGPU-Sim PTX: 22300000 instructions simulated : ctaid=(6,0,0) tid=(63,0,0)
GPGPU-Sim PTX: 22400000 instructions simulated : ctaid=(58,0,0) tid=(63,0,0)
GPGPU-Sim PTX: 22500000 instructions simulated : ctaid=(24,0,0) tid=(63,0,0)
GPGPU-Sim uArch: cycles simulated: 39000  inst.: 22524544 (ipc=577.6) sim_rate=500545 (inst/sec) elapsed = 0:0:00:45 / Wed Mar  2 01:17:28 2016
GPGPU-Sim PTX: 22600000 instructions simulated : ctaid=(51,0,0) tid=(95,0,0)
GPGPU-Sim PTX: 22700000 instructions simulated : ctaid=(17,0,0) tid=(63,0,0)
GPGPU-Sim PTX: 22800000 instructions simulated : ctaid=(43,0,0) tid=(63,0,0)
GPGPU-Sim PTX: 22900000 instructions simulated : ctaid=(86,0,0) tid=(31,0,0)
GPGPU-Sim PTX: 23000000 instructions simulated : ctaid=(56,0,0) tid=(95,0,0)
GPGPU-Sim PTX: 23100000 instructions simulated : ctaid=(37,0,0) tid=(95,0,0)
GPGPU-Sim uArch: cycles simulated: 40000  inst.: 23137248 (ipc=578.4) sim_rate=502983 (inst/sec) elapsed = 0:0:00:46 / Wed Mar  2 01:17:29 2016
GPGPU-Sim PTX: 23200000 instructions simulated : ctaid=(38,0,0) tid=(63,0,0)
GPGPU-Sim PTX: 23300000 instructions simulated : ctaid=(42,0,0) tid=(63,0,0)
GPGPU-Sim PTX: 23400000 instructions simulated : ctaid=(28,0,0) tid=(31,0,0)
GPGPU-Sim PTX: 23500000 instructions simulated : ctaid=(54,0,0) tid=(31,0,0)
GPGPU-Sim PTX: 23600000 instructions simulated : ctaid=(43,0,0) tid=(95,0,0)
GPGPU-Sim PTX: 23700000 instructions simulated : ctaid=(73,0,0) tid=(127,0,0)
GPGPU-Sim uArch: cycles simulated: 41000  inst.: 23747712 (ipc=579.2) sim_rate=505270 (inst/sec) elapsed = 0:0:00:47 / Wed Mar  2 01:17:30 2016
GPGPU-Sim PTX: 23800000 instructions simulated : ctaid=(36,0,0) tid=(95,0,0)
GPGPU-Sim PTX: 23900000 instructions simulated : ctaid=(19,0,0) tid=(63,0,0)
GPGPU-Sim PTX: 24000000 instructions simulated : ctaid=(59,0,0) tid=(95,0,0)
GPGPU-Sim PTX: 24100000 instructions simulated : ctaid=(68,0,0) tid=(31,0,0)
GPGPU-Sim PTX: 24200000 instructions simulated : ctaid=(13,0,0) tid=(63,0,0)
GPGPU-Sim PTX: 24300000 instructions simulated : ctaid=(46,0,0) tid=(31,0,0)
GPGPU-Sim uArch: cycles simulated: 42000  inst.: 24340800 (ipc=579.5) sim_rate=507100 (inst/sec) elapsed = 0:0:00:48 / Wed Mar  2 01:17:31 2016
GPGPU-Sim PTX: 24400000 instructions simulated : ctaid=(37,0,0) tid=(63,0,0)
GPGPU-Sim PTX: 24500000 instructions simulated : ctaid=(61,0,0) tid=(31,0,0)
GPGPU-Sim PTX: 24600000 instructions simulated : ctaid=(65,0,0) tid=(31,0,0)
GPGPU-Sim uArch: cycles simulated: 42500  inst.: 24619456 (ipc=579.3) sim_rate=502437 (inst/sec) elapsed = 0:0:00:49 / Wed Mar  2 01:17:32 2016
GPGPU-Sim PTX: 24700000 instructions simulated : ctaid=(62,0,0) tid=(31,0,0)
GPGPU-Sim PTX: 24800000 instructions simulated : ctaid=(68,0,0) tid=(63,0,0)
GPGPU-Sim PTX: 24900000 instructions simulated : ctaid=(28,0,0) tid=(63,0,0)
GPGPU-Sim PTX: 25000000 instructions simulated : ctaid=(48,0,0) tid=(127,0,0)
GPGPU-Sim PTX: 25100000 instructions simulated : ctaid=(50,0,0) tid=(95,0,0)
GPGPU-Sim PTX: 25200000 instructions simulated : ctaid=(39,0,0) tid=(95,0,0)
GPGPU-Sim uArch: cycles simulated: 43500  inst.: 25212736 (ipc=579.6) sim_rate=504254 (inst/sec) elapsed = 0:0:00:50 / Wed Mar  2 01:17:33 2016
GPGPU-Sim PTX: 25300000 instructions simulated : ctaid=(53,0,0) tid=(95,0,0)
GPGPU-Sim PTX: 25400000 instructions simulated : ctaid=(81,0,0) tid=(95,0,0)
GPGPU-Sim PTX: 25500000 instructions simulated : ctaid=(6,0,0) tid=(127,0,0)
GPGPU-Sim PTX: 25600000 instructions simulated : ctaid=(56,0,0) tid=(127,0,0)
GPGPU-Sim PTX: 25700000 instructions simulated : ctaid=(49,0,0) tid=(31,0,0)
GPGPU-Sim PTX: 25800000 instructions simulated : ctaid=(6,0,0) tid=(95,0,0)
GPGPU-Sim uArch: cycles simulated: 44500  inst.: 25830432 (ipc=580.5) sim_rate=506479 (inst/sec) elapsed = 0:0:00:51 / Wed Mar  2 01:17:34 2016
GPGPU-Sim PTX: 25900000 instructions simulated : ctaid=(28,0,0) tid=(31,0,0)
GPGPU-Sim PTX: 26000000 instructions simulated : ctaid=(50,0,0) tid=(95,0,0)
GPGPU-Sim PTX: 26100000 instructions simulated : ctaid=(59,0,0) tid=(127,0,0)
GPGPU-Sim PTX: 26200000 instructions simulated : ctaid=(81,0,0) tid=(63,0,0)
GPGPU-Sim PTX: 26300000 instructions simulated : ctaid=(0,0,0) tid=(31,0,0)
GPGPU-Sim PTX: 26400000 instructions simulated : ctaid=(13,0,0) tid=(127,0,0)
GPGPU-Sim uArch: cycles simulated: 45500  inst.: 26446656 (ipc=581.2) sim_rate=508589 (inst/sec) elapsed = 0:0:00:52 / Wed Mar  2 01:17:35 2016
GPGPU-Sim PTX: 26500000 instructions simulated : ctaid=(20,0,0) tid=(95,0,0)
GPGPU-Sim PTX: 26600000 instructions simulated : ctaid=(104,0,0) tid=(127,0,0)
GPGPU-Sim PTX: 26700000 instructions simulated : ctaid=(29,0,0) tid=(63,0,0)
GPGPU-Sim PTX: 26800000 instructions simulated : ctaid=(69,0,0) tid=(127,0,0)
GPGPU-Sim PTX: 26900000 instructions simulated : ctaid=(1,0,0) tid=(95,0,0)
GPGPU-Sim PTX: 27000000 instructions simulated : ctaid=(3,0,0) tid=(95,0,0)
GPGPU-Sim uArch: cycles simulated: 46500  inst.: 27030304 (ipc=581.3) sim_rate=510005 (inst/sec) elapsed = 0:0:00:53 / Wed Mar  2 01:17:36 2016
GPGPU-Sim PTX: 27100000 instructions simulated : ctaid=(31,0,0) tid=(95,0,0)
GPGPU-Sim PTX: 27200000 instructions simulated : ctaid=(31,0,0) tid=(31,0,0)
GPGPU-Sim PTX: 27300000 instructions simulated : ctaid=(7,0,0) tid=(63,0,0)
GPGPU-Sim PTX: 27400000 instructions simulated : ctaid=(89,0,0) tid=(31,0,0)
GPGPU-Sim PTX: 27500000 instructions simulated : ctaid=(87,0,0) tid=(31,0,0)
GPGPU-Sim PTX: 27600000 instructions simulated : ctaid=(87,0,0) tid=(95,0,0)
GPGPU-Sim uArch: cycles simulated: 47500  inst.: 27625088 (ipc=581.6) sim_rate=511575 (inst/sec) elapsed = 0:0:00:54 / Wed Mar  2 01:17:37 2016
GPGPU-Sim PTX: 27700000 instructions simulated : ctaid=(79,0,0) tid=(95,0,0)
GPGPU-Sim PTX: 27800000 instructions simulated : ctaid=(23,0,0) tid=(31,0,0)
GPGPU-Sim PTX: 27900000 instructions simulated : ctaid=(43,0,0) tid=(127,0,0)
GPGPU-Sim PTX: 28000000 instructions simulated : ctaid=(103,0,0) tid=(95,0,0)
GPGPU-Sim PTX: 28100000 instructions simulated : ctaid=(86,0,0) tid=(63,0,0)
GPGPU-Sim PTX: 28200000 instructions simulated : ctaid=(92,0,0) tid=(31,0,0)
GPGPU-Sim uArch: cycles simulated: 48500  inst.: 28236192 (ipc=582.2) sim_rate=513385 (inst/sec) elapsed = 0:0:00:55 / Wed Mar  2 01:17:38 2016
GPGPU-Sim PTX: 28300000 instructions simulated : ctaid=(32,0,0) tid=(63,0,0)
GPGPU-Sim PTX: 28400000 instructions simulated : ctaid=(13,0,0) tid=(95,0,0)
GPGPU-Sim PTX: 28500000 instructions simulated : ctaid=(89,0,0) tid=(31,0,0)
GPGPU-Sim uArch: cycles simulated: 49000  inst.: 28544096 (ipc=582.5) sim_rate=509716 (inst/sec) elapsed = 0:0:00:56 / Wed Mar  2 01:17:39 2016
GPGPU-Sim PTX: 28600000 instructions simulated : ctaid=(54,0,0) tid=(63,0,0)
GPGPU-Sim PTX: 28700000 instructions simulated : ctaid=(88,0,0) tid=(63,0,0)
GPGPU-Sim PTX: 28800000 instructions simulated : ctaid=(56,0,0) tid=(95,0,0)
GPGPU-Sim PTX: 28900000 instructions simulated : ctaid=(82,0,0) tid=(63,0,0)
GPGPU-Sim PTX: 29000000 instructions simulated : ctaid=(24,0,0) tid=(127,0,0)
GPGPU-Sim PTX: 29100000 instructions simulated : ctaid=(17,0,0) tid=(95,0,0)
GPGPU-Sim PTX: 29200000 instructions simulated : ctaid=(44,0,0) tid=(31,0,0)
GPGPU-Sim uArch: cycles simulated: 50000  inst.: 29167360 (ipc=583.3) sim_rate=511708 (inst/sec) elapsed = 0:0:00:57 / Wed Mar  2 01:17:40 2016
GPGPU-Sim PTX: 29300000 instructions simulated : ctaid=(30,0,0) tid=(31,0,0)
GPGPU-Sim PTX: 29400000 instructions simulated : ctaid=(66,0,0) tid=(95,0,0)
GPGPU-Sim PTX: 29500000 instructions simulated : ctaid=(5,0,0) tid=(95,0,0)
GPGPU-Sim PTX: 29600000 instructions simulated : ctaid=(25,0,0) tid=(63,0,0)
GPGPU-Sim PTX: 29700000 instructions simulated : ctaid=(113,0,0) tid=(31,0,0)
GPGPU-Sim uArch: cycles simulated: 51000  inst.: 29761568 (ipc=583.6) sim_rate=513130 (inst/sec) elapsed = 0:0:00:58 / Wed Mar  2 01:17:41 2016
GPGPU-Sim PTX: 29800000 instructions simulated : ctaid=(36,0,0) tid=(127,0,0)
GPGPU-Sim PTX: 29900000 instructions simulated : ctaid=(27,0,0) tid=(63,0,0)
GPGPU-Sim PTX: 30000000 instructions simulated : ctaid=(62,0,0) tid=(95,0,0)
GPGPU-Sim PTX: 30100000 instructions simulated : ctaid=(17,0,0) tid=(127,0,0)
GPGPU-Sim PTX: 30200000 instructions simulated : ctaid=(4,0,0) tid=(95,0,0)
GPGPU-Sim PTX: 30300000 instructions simulated : ctaid=(58,0,0) tid=(127,0,0)
GPGPU-Sim uArch: cycles simulated: 52000  inst.: 30357728 (ipc=583.8) sim_rate=514537 (inst/sec) elapsed = 0:0:00:59 / Wed Mar  2 01:17:42 2016
GPGPU-Sim PTX: 30400000 instructions simulated : ctaid=(19,0,0) tid=(95,0,0)
GPGPU-Sim PTX: 30500000 instructions simulated : ctaid=(50,0,0) tid=(95,0,0)
GPGPU-Sim PTX: 30600000 instructions simulated : ctaid=(39,0,0) tid=(127,0,0)
GPGPU-Sim PTX: 30700000 instructions simulated : ctaid=(16,0,0) tid=(95,0,0)
GPGPU-Sim PTX: 30800000 instructions simulated : ctaid=(37,0,0) tid=(127,0,0)
GPGPU-Sim PTX: 30900000 instructions simulated : ctaid=(41,0,0) tid=(31,0,0)
GPGPU-Sim PTX: 31000000 instructions simulated : ctaid=(82,0,0) tid=(31,0,0)
GPGPU-Sim uArch: cycles simulated: 53000  inst.: 30981952 (ipc=584.6) sim_rate=516365 (inst/sec) elapsed = 0:0:01:00 / Wed Mar  2 01:17:43 2016
GPGPU-Sim PTX: 31100000 instructions simulated : ctaid=(87,0,0) tid=(95,0,0)
GPGPU-Sim PTX: 31200000 instructions simulated : ctaid=(17,0,0) tid=(95,0,0)
GPGPU-Sim PTX: 31300000 instructions simulated : ctaid=(54,0,0) tid=(63,0,0)
GPGPU-Sim PTX: 31400000 instructions simulated : ctaid=(38,0,0) tid=(95,0,0)
GPGPU-Sim PTX: 31500000 instructions simulated : ctaid=(64,0,0) tid=(95,0,0)
GPGPU-Sim PTX: 31600000 instructions simulated : ctaid=(100,0,0) tid=(31,0,0)
GPGPU-Sim uArch: cycles simulated: 54000  inst.: 31574496 (ipc=584.7) sim_rate=517614 (inst/sec) elapsed = 0:0:01:01 / Wed Mar  2 01:17:44 2016
GPGPU-Sim PTX: 31700000 instructions simulated : ctaid=(38,0,0) tid=(63,0,0)
GPGPU-Sim PTX: 31800000 instructions simulated : ctaid=(88,0,0) tid=(31,0,0)
GPGPU-Sim PTX: 31900000 instructions simulated : ctaid=(20,0,0) tid=(95,0,0)
GPGPU-Sim PTX: 32000000 instructions simulated : ctaid=(28,0,0) tid=(31,0,0)
GPGPU-Sim PTX: 32100000 instructions simulated : ctaid=(43,0,0) tid=(127,0,0)
GPGPU-Sim uArch: cycles simulated: 55000  inst.: 32147552 (ipc=584.5) sim_rate=518508 (inst/sec) elapsed = 0:0:01:02 / Wed Mar  2 01:17:45 2016
GPGPU-Sim PTX: 32200000 instructions simulated : ctaid=(79,0,0) tid=(127,0,0)
GPGPU-Sim PTX: 32300000 instructions simulated : ctaid=(38,0,0) tid=(31,0,0)
GPGPU-Sim PTX: 32400000 instructions simulated : ctaid=(27,0,0) tid=(95,0,0)
GPGPU-Sim PTX: 32500000 instructions simulated : ctaid=(13,0,0) tid=(31,0,0)
GPGPU-Sim PTX: 32600000 instructions simulated : ctaid=(56,0,0) tid=(127,0,0)
GPGPU-Sim PTX: 32700000 instructions simulated : ctaid=(23,0,0) tid=(127,0,0)
GPGPU-Sim uArch: cycles simulated: 56000  inst.: 32729120 (ipc=584.4) sim_rate=519509 (inst/sec) elapsed = 0:0:01:03 / Wed Mar  2 01:17:46 2016
GPGPU-Sim PTX: 32800000 instructions simulated : ctaid=(9,0,0) tid=(31,0,0)
GPGPU-Sim PTX: 32900000 instructions simulated : ctaid=(17,0,0) tid=(95,0,0)
GPGPU-Sim PTX: 33000000 instructions simulated : ctaid=(57,0,0) tid=(63,0,0)
GPGPU-Sim PTX: 33100000 instructions simulated : ctaid=(59,0,0) tid=(63,0,0)
GPGPU-Sim PTX: 33200000 instructions simulated : ctaid=(8,0,0) tid=(127,0,0)
GPGPU-Sim PTX: 33300000 instructions simulated : ctaid=(49,0,0) tid=(63,0,0)
GPGPU-Sim uArch: cycles simulated: 57000  inst.: 33310752 (ipc=584.4) sim_rate=520480 (inst/sec) elapsed = 0:0:01:04 / Wed Mar  2 01:17:47 2016
GPGPU-Sim PTX: 33400000 instructions simulated : ctaid=(43,0,0) tid=(63,0,0)
GPGPU-Sim PTX: 33500000 instructions simulated : ctaid=(64,0,0) tid=(63,0,0)
GPGPU-Sim PTX: 33600000 instructions simulated : ctaid=(62,0,0) tid=(127,0,0)
GPGPU-Sim PTX: 33700000 instructions simulated : ctaid=(15,0,0) tid=(63,0,0)
GPGPU-Sim PTX: 33800000 instructions simulated : ctaid=(35,0,0) tid=(95,0,0)
GPGPU-Sim PTX: 33900000 instructions simulated : ctaid=(35,0,0) tid=(31,0,0)
GPGPU-Sim uArch: cycles simulated: 58000  inst.: 33909504 (ipc=584.6) sim_rate=521684 (inst/sec) elapsed = 0:0:01:05 / Wed Mar  2 01:17:48 2016
GPGPU-Sim PTX: 34000000 instructions simulated : ctaid=(16,0,0) tid=(31,0,0)
GPGPU-Sim PTX: 34100000 instructions simulated : ctaid=(15,0,0) tid=(31,0,0)
GPGPU-Sim PTX: 34200000 instructions simulated : ctaid=(43,0,0) tid=(127,0,0)
GPGPU-Sim uArch: cycles simulated: 58500  inst.: 34199968 (ipc=584.6) sim_rate=518181 (inst/sec) elapsed = 0:0:01:06 / Wed Mar  2 01:17:49 2016
GPGPU-Sim PTX: 34300000 instructions simulated : ctaid=(38,0,0) tid=(31,0,0)
GPGPU-Sim PTX: 34400000 instructions simulated : ctaid=(77,0,0) tid=(127,0,0)
GPGPU-Sim PTX: 34500000 instructions simulated : ctaid=(19,0,0) tid=(31,0,0)
GPGPU-Sim PTX: 34600000 instructions simulated : ctaid=(60,0,0) tid=(63,0,0)
GPGPU-Sim PTX: 34700000 instructions simulated : ctaid=(7,0,0) tid=(63,0,0)
GPGPU-Sim uArch: cycles simulated: 59500  inst.: 34752832 (ipc=584.1) sim_rate=518698 (inst/sec) elapsed = 0:0:01:07 / Wed Mar  2 01:17:50 2016
GPGPU-Sim PTX: 34800000 instructions simulated : ctaid=(75,0,0) tid=(95,0,0)
GPGPU-Sim PTX: 34900000 instructions simulated : ctaid=(13,0,0) tid=(127,0,0)
GPGPU-Sim PTX: 35000000 instructions simulated : ctaid=(64,0,0) tid=(63,0,0)
GPGPU-Sim PTX: 35100000 instructions simulated : ctaid=(73,0,0) tid=(63,0,0)
GPGPU-Sim PTX: 35200000 instructions simulated : ctaid=(41,0,0) tid=(63,0,0)
GPGPU-Sim PTX: 35300000 instructions simulated : ctaid=(34,0,0) tid=(31,0,0)
GPGPU-Sim uArch: cycles simulated: 60500  inst.: 35322432 (ipc=583.8) sim_rate=519447 (inst/sec) elapsed = 0:0:01:08 / Wed Mar  2 01:17:51 2016
GPGPU-Sim PTX: 35400000 instructions simulated : ctaid=(55,0,0) tid=(95,0,0)
GPGPU-Sim PTX: 35500000 instructions simulated : ctaid=(65,0,0) tid=(95,0,0)
GPGPU-Sim PTX: 35600000 instructions simulated : ctaid=(33,0,0) tid=(95,0,0)
GPGPU-Sim PTX: 35700000 instructions simulated : ctaid=(68,0,0) tid=(95,0,0)
GPGPU-Sim PTX: 35800000 instructions simulated : ctaid=(48,0,0) tid=(95,0,0)
GPGPU-Sim PTX: 35900000 instructions simulated : ctaid=(21,0,0) tid=(31,0,0)
GPGPU-Sim uArch: cycles simulated: 61500  inst.: 35866016 (ipc=583.2) sim_rate=519797 (inst/sec) elapsed = 0:0:01:09 / Wed Mar  2 01:17:52 2016
GPGPU-Sim PTX: 36000000 instructions simulated : ctaid=(63,0,0) tid=(95,0,0)
GPGPU-Sim uArch: Shader 1 finished CTA #0 (61685,0), 7 CTAs running
GPGPU-Sim uArch: core:  1, cta: 0 initialized @(61686,0)
GPGPU-Sim PTX: 36100000 instructions simulated : ctaid=(84,0,0) tid=(31,0,0)
GPGPU-Sim PTX: 36200000 instructions simulated : ctaid=(78,0,0) tid=(31,0,0)
GPGPU-Sim PTX: 36300000 instructions simulated : ctaid=(9,0,0) tid=(31,0,0)
GPGPU-Sim PTX: 36400000 instructions simulated : ctaid=(72,0,0) tid=(95,0,0)
GPGPU-Sim uArch: cycles simulated: 62500  inst.: 36370912 (ipc=581.9) sim_rate=519584 (inst/sec) elapsed = 0:0:01:10 / Wed Mar  2 01:17:53 2016
GPGPU-Sim PTX: 36500000 instructions simulated : ctaid=(28,0,0) tid=(31,0,0)
GPGPU-Sim PTX: 36600000 instructions simulated : ctaid=(35,0,0) tid=(127,0,0)
GPGPU-Sim PTX: 36700000 instructions simulated : ctaid=(59,0,0) tid=(63,0,0)
GPGPU-Sim PTX: 36800000 instructions simulated : ctaid=(73,0,0) tid=(31,0,0)
GPGPU-Sim PTX: 36900000 instructions simulated : ctaid=(94,0,0) tid=(63,0,0)
GPGPU-Sim uArch: Shader 3 finished CTA #0 (63488,0), 7 CTAs running
GPGPU-Sim uArch: core:  3, cta: 0 initialized @(63489,0)
GPGPU-Sim uArch: cycles simulated: 63500  inst.: 36907616 (ipc=581.2) sim_rate=519825 (inst/sec) elapsed = 0:0:01:11 / Wed Mar  2 01:17:54 2016
GPGPU-Sim PTX: 37000000 instructions simulated : ctaid=(37,0,0) tid=(63,0,0)
GPGPU-Sim PTX: 37100000 instructions simulated : ctaid=(118,0,0) tid=(31,0,0)
GPGPU-Sim PTX: 37200000 instructions simulated : ctaid=(78,0,0) tid=(95,0,0)
GPGPU-Sim uArch: Shader 4 finished CTA #0 (64112,0), 7 CTAs running
GPGPU-Sim uArch: core:  4, cta: 0 initialized @(64113,0)
GPGPU-Sim uArch: Shader 3 finished CTA #1 (64157,0), 7 CTAs running
GPGPU-Sim uArch: core:  3, cta: 1 initialized @(64158,0)
GPGPU-Sim uArch: Shader 9 finished CTA #0 (64168,0), 7 CTAs running
GPGPU-Sim uArch: core:  9, cta: 0 initialized @(64169,0)
GPGPU-Sim PTX: 37300000 instructions simulated : ctaid=(19,0,0) tid=(63,0,0)
GPGPU-Sim uArch: Shader 12 finished CTA #0 (64232,0), 7 CTAs running
GPGPU-Sim uArch: core: 12, cta: 0 initialized @(64233,0)
GPGPU-Sim uArch: Shader 8 finished CTA #0 (64237,0), 7 CTAs running
GPGPU-Sim uArch: core:  8, cta: 0 initialized @(64238,0)
GPGPU-Sim PTX: 37400000 instructions simulated : ctaid=(92,0,0) tid=(63,0,0)
GPGPU-Sim uArch: Shader 14 finished CTA #0 (64469,0), 7 CTAs running
GPGPU-Sim uArch: core: 14, cta: 0 initialized @(64470,0)
GPGPU-Sim uArch: cycles simulated: 64500  inst.: 37427712 (ipc=580.3) sim_rate=519829 (inst/sec) elapsed = 0:0:01:12 / Wed Mar  2 01:17:55 2016
GPGPU-Sim uArch: Shader 10 finished CTA #0 (64541,0), 7 CTAs running
GPGPU-Sim uArch: core: 10, cta: 0 initialized @(64542,0)
GPGPU-Sim PTX: 37500000 instructions simulated : ctaid=(45,0,0) tid=(31,0,0)
GPGPU-Sim PTX: 37600000 instructions simulated : ctaid=(72,0,0) tid=(95,0,0)
GPGPU-Sim uArch: Shader 6 finished CTA #0 (64748,0), 7 CTAs running
GPGPU-Sim uArch: core:  6, cta: 0 initialized @(64749,0)
GPGPU-Sim uArch: Shader 2 finished CTA #0 (64830,0), 7 CTAs running
GPGPU-Sim uArch: core:  2, cta: 0 initialized @(64831,0)
GPGPU-Sim PTX: 37700000 instructions simulated : ctaid=(98,0,0) tid=(95,0,0)
GPGPU-Sim uArch: Shader 9 finished CTA #1 (65075,0), 7 CTAs running
GPGPU-Sim uArch: core:  9, cta: 1 initialized @(65076,0)
GPGPU-Sim PTX: 37800000 instructions simulated : ctaid=(46,0,0) tid=(95,0,0)
GPGPU-Sim uArch: Shader 0 finished CTA #0 (65193,0), 7 CTAs running
GPGPU-Sim uArch: core:  0, cta: 0 initialized @(65194,0)
GPGPU-Sim PTX: 37900000 instructions simulated : ctaid=(101,0,0) tid=(127,0,0)
GPGPU-Sim uArch: Shader 5 finished CTA #1 (65385,0), 7 CTAs running
GPGPU-Sim uArch: core:  5, cta: 1 initialized @(65386,0)
GPGPU-Sim uArch: Shader 11 finished CTA #0 (65437,0), 7 CTAs running
GPGPU-Sim uArch: core: 11, cta: 0 initialized @(65438,0)
GPGPU-Sim PTX: 38000000 instructions simulated : ctaid=(79,0,0) tid=(63,0,0)
GPGPU-Sim uArch: cycles simulated: 65500  inst.: 37993152 (ipc=580.0) sim_rate=520454 (inst/sec) elapsed = 0:0:01:13 / Wed Mar  2 01:17:56 2016
GPGPU-Sim PTX: 38100000 instructions simulated : ctaid=(81,0,0) tid=(95,0,0)
GPGPU-Sim uArch: Shader 11 finished CTA #1 (65623,0), 7 CTAs running
GPGPU-Sim uArch: core: 11, cta: 1 initialized @(65624,0)
GPGPU-Sim PTX: 38200000 instructions simulated : ctaid=(124,0,0) tid=(95,0,0)
GPGPU-Sim uArch: Shader 4 finished CTA #1 (65810,0), 7 CTAs running
GPGPU-Sim uArch: core:  4, cta: 1 initialized @(65811,0)
GPGPU-Sim uArch: Shader 5 finished CTA #0 (65817,0), 7 CTAs running
GPGPU-Sim uArch: core:  5, cta: 0 initialized @(65818,0)
GPGPU-Sim uArch: Shader 13 finished CTA #0 (65890,0), 7 CTAs running
GPGPU-Sim uArch: core: 13, cta: 0 initialized @(65891,0)
GPGPU-Sim uArch: Shader 7 finished CTA #0 (65962,0), 7 CTAs running
GPGPU-Sim uArch: core:  7, cta: 0 initialized @(65963,0)
GPGPU-Sim PTX: 38300000 instructions simulated : ctaid=(77,0,0) tid=(31,0,0)
GPGPU-Sim uArch: Shader 13 finished CTA #1 (66028,0), 7 CTAs running
GPGPU-Sim uArch: core: 13, cta: 1 initialized @(66029,0)
GPGPU-Sim uArch: Shader 10 finished CTA #1 (66053,0), 7 CTAs running
GPGPU-Sim uArch: core: 10, cta: 1 initialized @(66054,0)
GPGPU-Sim PTX: 38400000 instructions simulated : ctaid=(90,0,0) tid=(95,0,0)
GPGPU-Sim uArch: Shader 1 finished CTA #1 (66167,0), 7 CTAs running
GPGPU-Sim uArch: core:  1, cta: 1 initialized @(66168,0)
GPGPU-Sim PTX: 38500000 instructions simulated : ctaid=(141,0,0) tid=(95,0,0)
GPGPU-Sim uArch: Shader 6 finished CTA #1 (66402,0), 7 CTAs running
GPGPU-Sim uArch: core:  6, cta: 1 initialized @(66403,0)
GPGPU-Sim PTX: 38600000 instructions simulated : ctaid=(62,0,0) tid=(127,0,0)
GPGPU-Sim uArch: cycles simulated: 66500  inst.: 38569088 (ipc=580.0) sim_rate=521203 (inst/sec) elapsed = 0:0:01:14 / Wed Mar  2 01:17:57 2016
GPGPU-Sim uArch: Shader 0 finished CTA #1 (66543,0), 7 CTAs running
GPGPU-Sim uArch: core:  0, cta: 1 initialized @(66544,0)
GPGPU-Sim PTX: 38700000 instructions simulated : ctaid=(30,0,0) tid=(63,0,0)
GPGPU-Sim uArch: Shader 14 finished CTA #1 (66640,0), 7 CTAs running
GPGPU-Sim uArch: core: 14, cta: 1 initialized @(66641,0)
GPGPU-Sim uArch: Shader 9 finished CTA #2 (66674,0), 7 CTAs running
GPGPU-Sim uArch: core:  9, cta: 2 initialized @(66675,0)
GPGPU-Sim uArch: Shader 7 finished CTA #1 (66707,0), 7 CTAs running
GPGPU-Sim uArch: core:  7, cta: 1 initialized @(66708,0)
GPGPU-Sim PTX: 38800000 instructions simulated : ctaid=(47,0,0) tid=(63,0,0)
GPGPU-Sim uArch: Shader 8 finished CTA #1 (66880,0), 7 CTAs running
GPGPU-Sim uArch: core:  8, cta: 1 initialized @(66881,0)
GPGPU-Sim PTX: 38900000 instructions simulated : ctaid=(132,0,0) tid=(31,0,0)
GPGPU-Sim uArch: Shader 2 finished CTA #1 (66989,0), 7 CTAs running
GPGPU-Sim uArch: core:  2, cta: 1 initialized @(66990,0)
GPGPU-Sim PTX: 39000000 instructions simulated : ctaid=(106,0,0) tid=(31,0,0)
GPGPU-Sim PTX: 39100000 instructions simulated : ctaid=(110,0,0) tid=(95,0,0)
GPGPU-Sim PTX: 39200000 instructions simulated : ctaid=(87,0,0) tid=(63,0,0)
GPGPU-Sim uArch: cycles simulated: 67500  inst.: 39214784 (ipc=581.0) sim_rate=522863 (inst/sec) elapsed = 0:0:01:15 / Wed Mar  2 01:17:58 2016
GPGPU-Sim PTX: 39300000 instructions simulated : ctaid=(74,0,0) tid=(95,0,0)
GPGPU-Sim uArch: Shader 0 finished CTA #2 (67695,0), 7 CTAs running
GPGPU-Sim uArch: core:  0, cta: 2 initialized @(67696,0)
GPGPU-Sim PTX: 39400000 instructions simulated : ctaid=(88,0,0) tid=(95,0,0)
GPGPU-Sim uArch: Shader 3 finished CTA #2 (67767,0), 7 CTAs running
GPGPU-Sim uArch: core:  3, cta: 2 initialized @(67768,0)
GPGPU-Sim PTX: 39500000 instructions simulated : ctaid=(103,0,0) tid=(127,0,0)
GPGPU-Sim PTX: 39600000 instructions simulated : ctaid=(52,0,0) tid=(63,0,0)
GPGPU-Sim PTX: 39700000 instructions simulated : ctaid=(76,0,0) tid=(95,0,0)
GPGPU-Sim PTX: 39800000 instructions simulated : ctaid=(107,0,0) tid=(127,0,0)
GPGPU-Sim PTX: 39900000 instructions simulated : ctaid=(70,0,0) tid=(31,0,0)
GPGPU-Sim uArch: cycles simulated: 68500  inst.: 39863584 (ipc=582.0) sim_rate=524520 (inst/sec) elapsed = 0:0:01:16 / Wed Mar  2 01:17:59 2016
GPGPU-Sim PTX: 40000000 instructions simulated : ctaid=(144,0,0) tid=(31,0,0)
GPGPU-Sim uArch: Shader 2 finished CTA #2 (68695,0), 7 CTAs running
GPGPU-Sim uArch: core:  2, cta: 2 initialized @(68696,0)
GPGPU-Sim PTX: 40100000 instructions simulated : ctaid=(73,0,0) tid=(127,0,0)
GPGPU-Sim uArch: Shader 8 finished CTA #2 (68837,0), 7 CTAs running
GPGPU-Sim uArch: core:  8, cta: 2 initialized @(68838,0)
GPGPU-Sim PTX: 40200000 instructions simulated : ctaid=(104,0,0) tid=(95,0,0)
GPGPU-Sim uArch: cycles simulated: 69000  inst.: 40192096 (ipc=582.5) sim_rate=521975 (inst/sec) elapsed = 0:0:01:17 / Wed Mar  2 01:18:00 2016
GPGPU-Sim uArch: Shader 14 finished CTA #2 (69040,0), 7 CTAs running
GPGPU-Sim uArch: core: 14, cta: 2 initialized @(69041,0)
GPGPU-Sim uArch: Shader 7 finished CTA #2 (69087,0), 7 CTAs running
GPGPU-Sim uArch: core:  7, cta: 2 initialized @(69088,0)
GPGPU-Sim PTX: 40300000 instructions simulated : ctaid=(115,0,0) tid=(31,0,0)
GPGPU-Sim PTX: 40400000 instructions simulated : ctaid=(122,0,0) tid=(63,0,0)
GPGPU-Sim PTX: 40500000 instructions simulated : ctaid=(89,0,0) tid=(31,0,0)
GPGPU-Sim PTX: 40600000 instructions simulated : ctaid=(107,0,0) tid=(63,0,0)
GPGPU-Sim uArch: Shader 1 finished CTA #2 (69588,0), 7 CTAs running
GPGPU-Sim uArch: core:  1, cta: 2 initialized @(69589,0)
GPGPU-Sim uArch: Shader 12 finished CTA #1 (69709,0), 7 CTAs running
GPGPU-Sim uArch: core: 12, cta: 1 initialized @(69710,0)
GPGPU-Sim PTX: 40700000 instructions simulated : ctaid=(51,0,0) tid=(127,0,0)
GPGPU-Sim PTX: 40800000 instructions simulated : ctaid=(122,0,0) tid=(127,0,0)
GPGPU-Sim uArch: cycles simulated: 70000  inst.: 40828800 (ipc=583.3) sim_rate=523446 (inst/sec) elapsed = 0:0:01:18 / Wed Mar  2 01:18:01 2016
GPGPU-Sim PTX: 40900000 instructions simulated : ctaid=(70,0,0) tid=(31,0,0)
GPGPU-Sim uArch: Shader 6 finished CTA #2 (70094,0), 7 CTAs running
GPGPU-Sim uArch: core:  6, cta: 2 initialized @(70095,0)
GPGPU-Sim PTX: 41000000 instructions simulated : ctaid=(102,0,0) tid=(31,0,0)
GPGPU-Sim PTX: 41100000 instructions simulated : ctaid=(102,0,0) tid=(127,0,0)
GPGPU-Sim uArch: Shader 13 finished CTA #2 (70512,0), 7 CTAs running
GPGPU-Sim uArch: core: 13, cta: 2 initialized @(70513,0)
GPGPU-Sim PTX: 41200000 instructions simulated : ctaid=(60,0,0) tid=(63,0,0)
GPGPU-Sim uArch: Shader 10 finished CTA #2 (70518,0), 7 CTAs running
GPGPU-Sim uArch: core: 10, cta: 2 initialized @(70519,0)
GPGPU-Sim PTX: 41300000 instructions simulated : ctaid=(85,0,0) tid=(31,0,0)
GPGPU-Sim uArch: Shader 11 finished CTA #2 (70764,0), 7 CTAs running
GPGPU-Sim uArch: core: 11, cta: 2 initialized @(70765,0)
GPGPU-Sim uArch: Shader 12 finished CTA #2 (70804,0), 7 CTAs running
GPGPU-Sim uArch: core: 12, cta: 2 initialized @(70805,0)
GPGPU-Sim PTX: 41400000 instructions simulated : ctaid=(121,0,0) tid=(63,0,0)
GPGPU-Sim uArch: Shader 4 finished CTA #2 (70880,0), 7 CTAs running
GPGPU-Sim uArch: core:  4, cta: 2 initialized @(70881,0)
GPGPU-Sim uArch: cycles simulated: 71000  inst.: 41446304 (ipc=583.8) sim_rate=524636 (inst/sec) elapsed = 0:0:01:19 / Wed Mar  2 01:18:02 2016
GPGPU-Sim PTX: 41500000 instructions simulated : ctaid=(65,0,0) tid=(63,0,0)
GPGPU-Sim uArch: Shader 5 finished CTA #2 (71129,0), 7 CTAs running
GPGPU-Sim uArch: core:  5, cta: 2 initialized @(71130,0)
GPGPU-Sim PTX: 41600000 instructions simulated : ctaid=(81,0,0) tid=(127,0,0)
GPGPU-Sim PTX: 41700000 instructions simulated : ctaid=(154,0,0) tid=(95,0,0)
GPGPU-Sim PTX: 41800000 instructions simulated : ctaid=(132,0,0) tid=(95,0,0)
GPGPU-Sim PTX: 41900000 instructions simulated : ctaid=(151,0,0) tid=(127,0,0)
GPGPU-Sim uArch: Shader 1 finished CTA #3 (71831,0), 7 CTAs running
GPGPU-Sim uArch: core:  1, cta: 3 initialized @(71832,0)
GPGPU-Sim PTX: 42000000 instructions simulated : ctaid=(122,0,0) tid=(63,0,0)
GPGPU-Sim uArch: cycles simulated: 72000  inst.: 42028768 (ipc=583.7) sim_rate=525359 (inst/sec) elapsed = 0:0:01:20 / Wed Mar  2 01:18:03 2016
GPGPU-Sim PTX: 42100000 instructions simulated : ctaid=(76,0,0) tid=(63,0,0)
GPGPU-Sim uArch: Shader 9 finished CTA #3 (72057,0), 7 CTAs running
GPGPU-Sim uArch: core:  9, cta: 3 initialized @(72058,0)
GPGPU-Sim PTX: 42200000 instructions simulated : ctaid=(110,0,0) tid=(95,0,0)
GPGPU-Sim PTX: 42300000 instructions simulated : ctaid=(95,0,0) tid=(31,0,0)
GPGPU-Sim uArch: Shader 14 finished CTA #3 (72456,0), 7 CTAs running
GPGPU-Sim uArch: core: 14, cta: 3 initialized @(72457,0)
GPGPU-Sim uArch: cycles simulated: 72500  inst.: 42315680 (ipc=583.7) sim_rate=522415 (inst/sec) elapsed = 0:0:01:21 / Wed Mar  2 01:18:04 2016
GPGPU-Sim PTX: 42400000 instructions simulated : ctaid=(111,0,0) tid=(95,0,0)
GPGPU-Sim uArch: Shader 6 finished CTA #3 (72605,0), 7 CTAs running
GPGPU-Sim uArch: core:  6, cta: 3 initialized @(72606,0)
GPGPU-Sim PTX: 42500000 instructions simulated : ctaid=(125,0,0) tid=(127,0,0)
GPGPU-Sim PTX: 42600000 instructions simulated : ctaid=(72,0,0) tid=(127,0,0)
GPGPU-Sim uArch: Shader 3 finished CTA #3 (72959,0), 7 CTAs running
GPGPU-Sim uArch: core:  3, cta: 3 initialized @(72960,0)
GPGPU-Sim PTX: 42700000 instructions simulated : ctaid=(120,0,0) tid=(31,0,0)
GPGPU-Sim PTX: 42800000 instructions simulated : ctaid=(55,0,0) tid=(127,0,0)
GPGPU-Sim PTX: 42900000 instructions simulated : ctaid=(149,0,0) tid=(127,0,0)
GPGPU-Sim uArch: cycles simulated: 73500  inst.: 42933408 (ipc=584.1) sim_rate=523578 (inst/sec) elapsed = 0:0:01:22 / Wed Mar  2 01:18:05 2016
GPGPU-Sim PTX: 43000000 instructions simulated : ctaid=(133,0,0) tid=(127,0,0)
GPGPU-Sim PTX: 43100000 instructions simulated : ctaid=(110,0,0) tid=(95,0,0)
GPGPU-Sim uArch: Shader 7 finished CTA #3 (73689,0), 7 CTAs running
GPGPU-Sim uArch: core:  7, cta: 3 initialized @(73690,0)
GPGPU-Sim PTX: 43200000 instructions simulated : ctaid=(123,0,0) tid=(127,0,0)
GPGPU-Sim PTX: 43300000 instructions simulated : ctaid=(64,0,0) tid=(63,0,0)
GPGPU-Sim PTX: 43400000 instructions simulated : ctaid=(83,0,0) tid=(31,0,0)
GPGPU-Sim PTX: 43500000 instructions simulated : ctaid=(113,0,0) tid=(95,0,0)
GPGPU-Sim uArch: Shader 8 finished CTA #3 (74426,0), 7 CTAs running
GPGPU-Sim uArch: core:  8, cta: 3 initialized @(74427,0)
GPGPU-Sim uArch: cycles simulated: 74500  inst.: 43541216 (ipc=584.4) sim_rate=524592 (inst/sec) elapsed = 0:0:01:23 / Wed Mar  2 01:18:06 2016
GPGPU-Sim PTX: 43600000 instructions simulated : ctaid=(116,0,0) tid=(63,0,0)
GPGPU-Sim PTX: 43700000 instructions simulated : ctaid=(84,0,0) tid=(63,0,0)
GPGPU-Sim PTX: 43800000 instructions simulated : ctaid=(73,0,0) tid=(127,0,0)
GPGPU-Sim uArch: Shader 2 finished CTA #3 (74969,0), 7 CTAs running
GPGPU-Sim uArch: core:  2, cta: 3 initialized @(74970,0)
GPGPU-Sim PTX: 43900000 instructions simulated : ctaid=(119,0,0) tid=(95,0,0)
GPGPU-Sim uArch: Shader 0 finished CTA #3 (75103,0), 7 CTAs running
GPGPU-Sim uArch: core:  0, cta: 3 initialized @(75104,0)
GPGPU-Sim PTX: 44000000 instructions simulated : ctaid=(119,0,0) tid=(31,0,0)
GPGPU-Sim PTX: 44100000 instructions simulated : ctaid=(104,0,0) tid=(127,0,0)
[...]
max_icnt2sh_latency = 338447 
mrq_lat_table:120510 	3885 	5976 	14112 	44639 	73368 	96093 	64240 	14207 	474 	5 	0 	0 	0 	0 	0 	0 	0 	0 	0 	0 	0 	0 	0 	0 	0 	0 	0 	0 	0 	0 	0 	
dq_lat_table:0 	0 	0 	0 	0 	0 	0 	0 	0 	0 	0 	0 	0 	0 	0 	0 	0 	0 	0 	0 	0 	0 	0 	0 	0 	0 	0 	0 	0 	0 	0 	0 	
mf_lat_table:0 	0 	0 	0 	0 	0 	0 	122 	53319 	247440 	11634 	0 	0 	0 	0 	0 	0 	0 	0 	0 	0 	0 	0 	0 	0 	0 	0 	0 	0 	0 	0 	0 	
icnt2mem_lat_table:0 	0 	0 	23216 	11937 	24605 	80923 	82551 	86536 	2867 	0 	0 	0 	0 	0 	0 	0 	0 	0 	0 	0 	0 	0 	0 	
icnt2sh_lat_table:0 	0 	0 	127738 	57355 	2414 	8 	0 	0 	0 	0 	106 	1520 	3217 	6443 	12510 	25321 	50609 	25274 	0 	0 	0 	0 	0 	
mf_lat_pw_table:0 	0 	0 	0 	0 	0 	0 	0 	56 	618 	0 	0 	0 	0 	0 	0 	0 	0 	0 	0 	0 	0 	0 	0 	0 	0 	0 	0 	0 	0 	0 	0 	
maximum concurrent accesses to same row:
dram[0]:        29        30        18        16        30        20        36        36        22        16        30        32        32        30        24        16 
dram[1]:        30        29        14        20        20        28        32        34        20        20        28        32        32        30        22        22 
dram[2]:        31        30        18        16        20        24        38        32        20        16        34        30        32        30        20        20 
dram[3]:        29        28        18        20        26        24        32        32        22        22        34        30        32        30        26        16 
dram[4]:        29        30        14        18        20        24        34        32        18        20        30        26        30        30        20        18 
dram[5]:        28        30        14        22        20        24        32        32        18        16        30        26        30        30        20        16 
maximum service time to same row:
dram[0]:      3197      3176      4326      3821      3835      4772      2453      2607      6365      4918      2546      3287      2997      3206      6156      4527 
dram[1]:      2242      3213      3978      3955      4123      5446      2456      3185      6173      4739      2406      3304      2963      3181      6377      4548 
dram[2]:      2174      3363      4247      4120      2461      2454      2504      3347      4594      4640      3388      3343      3045      3359      4789      4718 
dram[3]:      2637      4102      3873      4571      2563      2475      2637      4106      4534      4913      4057      4099      3200      4115      4804      4729 
dram[4]:      3256      3838      4138      4207      2444      2447      2497      3822      4938      4546      2491      2619      2929      3798      4510      4882 
dram[5]:      3307      4208      3824      4202      2461      2451      2480      4209      5049      4751      2571      2494      3076      4209      4800      4807 
average row accesses per activate:
dram[0]:  1.593607  1.585724  1.562868  1.543620  1.576348  1.577994  1.625000  1.605051  1.559646  1.552239  1.581749  1.588889  1.596650  1.584488  1.581203  1.569273 
dram[1]:  1.569007  1.563298  1.525355  1.543092  1.549402  1.564377  1.583939  1.571429  1.557522  1.529923  1.579020  1.559114  1.563375  1.566587  1.551712  1.550135 
dram[2]:  1.571726  1.574158  1.554254  1.552650  1.585170  1.587124  1.602241  1.616961  1.549611  1.563910  1.579565  1.568197  1.592206  1.591099  1.580656  1.582296 
dram[3]:  1.559299  1.549932  1.527938  1.531049  1.555251  1.557692  1.580111  1.574673  1.525842  1.536086  1.551712  1.553820  1.567660  1.553820  1.542819  1.548038 
dram[4]:  1.578691  1.593530  1.556936  1.547325  1.580746  1.579387  1.605614  1.588889  1.557522  1.560177  1.588889  1.592760  1.577931  1.589441  1.586135  1.577387 
dram[5]:  1.563448  1.553119  1.531568  1.541510  1.561682  1.560372  1.588889  1.600000  1.536602  1.534541  1.559114  1.550661  1.563910  1.552239  1.564979  1.558052 
average row locality = 437509/279190 = 1.567065
number of total memory accesses made:
dram[0]:         0         0         0         0         0         0         0         0         0         0         0         0         0         0         0         0 
dram[1]:         0         0         0         0         0         0         0         0         0         0         0         0         0         0         0         0 
dram[2]:         0         0         0         0         0         0         0         0         0         0         0         0         0         0         0         0 
dram[3]:         0         0         0         0         0         0         0         0         0         0         0         0         0         0         0         0 
dram[4]:         0         0         0         0         0         0         0         0         0         0         0         0         0         0         0         0 
dram[5]:         0         0         0         0         0         0         0         0         0         0         0         0         0         0         0         0 
total accesses: 0
min_bank_accesses = 0!
min_chip_accesses = 0!
number of total read accesses:
dram[0]:      3251      3246      3232      3232      3242      3242      3264      3264      3264      3264      3264      3264      3264      3264      3264      3264 
dram[1]:      3250      3246      3232      3232      3242      3242      3264      3264      3264      3264      3264      3264      3264      3264      3264      3264 
dram[2]:      3250      3246      3232      3232      3242      3244      3264      3264      3264      3264      3264      3264      3264      3264      3264      3264 
dram[3]:      3250      3246      3232      3232      3242      3244      3264      3264      3264      3264      3264      3264      3264      3264      3264      3264 
dram[4]:      3248      3246      3232      3232      3242      3244      3264      3264      3264      3264      3264      3264      3264      3264      3264      3264 
dram[5]:      3248      3246      3232      3232      3242      3244      3264      3264      3264      3264      3264      3264      3264      3264      3264      3264 
total reads: 312509
bank skew: 3264/3232 = 1.01
chip skew: 52086/52084 = 1.00
number of total write accesses:
dram[0]:      1286      1286      1280      1280      1290      1290      1312      1312      1312      1312      1312      1312      1312      1312      1312      1312 
dram[1]:      1286      1286      1280      1280      1290      1290      1312      1312      1312      1312      1312      1312      1312      1312      1312      1312 
dram[2]:      1286      1286      1280      1280      1290      1292      1312      1312      1312      1312      1312      1312      1312      1312      1312      1312 
dram[3]:      1286      1286      1280      1280      1290      1292      1312      1312      1312      1312      1312      1312      1312      1312      1312      1312 
dram[4]:      1286      1286      1280      1280      1290      1292      1312      1312      1312      1312      1312      1312      1312      1312      1312      1312 
dram[5]:      1286      1286      1280      1280      1290      1292      1312      1312      1312      1312      1312      1312      1312      1312      1312      1312 
total reads: 125000
bank skew: 1312/1280 = 1.02
chip skew: 20834/20832 = 1.00
average mf latency per bank:
dram[0]:        468       458       477       462       475       467       488       480       471       456       472       459       480       473       490       481
dram[1]:        420       429       425       440       431       441       437       447       426       432       426       433       431       444       448       453
dram[2]:        507       512       516       521       524       526       524       529       515       519       515       517       518       521       538       545
dram[3]:        486       478       491       481       498       491       496       495       493       477       488       477       497       490       509       505
dram[4]:        526       545       536       553       536       551       545       559       531       551       528       541       539       563       554       570
dram[5]:        445       443       456       455       457       454       467       469       452       448       445       448       460       461       474       468
maximum mf latency per bank:
dram[0]:       1913      1233      1345      1385      1599      1376      1592      1391      1430      1249      1424      1287      1607      1337      1408      1685
dram[1]:       1389      1257      1266      1321      1247      1261      1231      1438      1244      1185      1150      1258      1238      1262      1223      1357
dram[2]:       1402      1498      1523      1720      1679      1605      1890      1709      1846      1742      1487      1604      1827      1581      1565      1598
dram[3]:       1343      1388      1392      1413      1474      1394      1409      1633      1544      1380      1379      1377      1378      1285      1428      1488
dram[4]:       1427      1962      1492      1552      1605      1491      1390      1578      1386      1482      1515      1457      1432      1513      1587      1671
dram[5]:       1262      1440      1251      1314      1229      1371      1418      1456      1426      1253      1284      1240      1341      1376      1367      1269

Number of Memory Banks Accessed per Memory Operation per Warp (from 0):
0	0	0	0	0	0	0	0	0	0	0	0	0	0	0	0	0	0	0	0	0	0	0	0	0	0	0	0	0	0	0	0	0	0	0	0	0	0	0	0	0	0	0	0	0	0	0	0	0	0	0	0	0	0	0	0	0	0	0	0	0	0	0	0	0	0	0	0	0	0	0	0	0	0	0	0	0	0	0	0	0	0	0	0	0	0	0	0	0	0	0	0	0	0	0	0	
Average # of Memory Banks Accessed per Memory Operation per Warp=-nan

position of mrq chosen
0	0	0	0	0	0	0	0	0	0	0	0	0	0	0	0	

average position of mrq chosen = -nan
Memory Partition 0: 
Cache L2_bank_000:
MSHR contents

Cache L2_bank_001:
MSHR contents

In Dram Latency Queue (total = 0): 
DRAM[0]: 16 bks, busW=4 BL=8 CL=12, tRRD=2 tCCD=6, tRCD=12 tRAS=28 tRP=12 tRC=40
n_cmd=446751 n_nop=208637 n_act=46148 n_pre=46132 n_req=72917 n_rd=104170 n_write=41664 bw_util=0.3264
n_activity=432845 dram_eff=0.3369
bk0: 6502a 215136i bk1: 6492a 207813i bk2: 6464a 200563i bk3: 6464a 194383i bk4: 6484a 191804i bk5: 6484a 184347i bk6: 6528a 174476i bk7: 6528a 165713i bk8: 6528a 209927i bk9: 6528a 203146i bk10: 6528a 202268i bk11: 6528a 198359i bk12: 6528a 189119i bk13: 6528a 178418i bk14: 6528a 170921i bk15: 6528a 159574i 
dram_util_bins: 0 0 0 0 0 0 0 0 0 0
dram_eff_bins: 0 0 0 0 0 0 0 0 0 0
mrqq: max=16 avg=14.4579
Memory Partition 1: 
Cache L2_bank_002:
MSHR contents

Cache L2_bank_003:
MSHR contents

In Dram Latency Queue (total = 0): 
DRAM[1]: 16 bks, busW=4 BL=8 CL=12, tRRD=2 tCCD=6, tRCD=12 tRAS=28 tRP=12 tRC=40
n_cmd=446751 n_nop=207323 n_act=46806 n_pre=46790 n_req=72916 n_rd=104168 n_write=41664 bw_util=0.3264
n_activity=435428 dram_eff=0.3349
bk0: 6500a 215795i bk1: 6492a 207593i bk2: 6464a 205417i bk3: 6464a 195140i bk4: 6484a 191965i bk5: 6484a 188732i bk6: 6528a 176416i bk7: 6528a 165805i bk8: 6528a 207824i bk9: 6528a 201035i bk10: 6528a 199680i bk11: 6528a 195738i bk12: 6528a 186911i bk13: 6528a 179022i bk14: 6528a 169599i bk15: 6528a 162916i 
dram_util_bins: 0 0 0 0 0 0 0 0 0 0
dram_eff_bins: 0 0 0 0 0 0 0 0 0 0
mrqq: max=16 avg=14.1367
Memory Partition 2: 
Cache L2_bank_004:
MSHR contents

Cache L2_bank_005:
MSHR contents

In Dram Latency Queue (total = 0): 
DRAM[2]: 16 bks, busW=4 BL=8 CL=12, tRRD=2 tCCD=6, tRCD=12 tRAS=28 tRP=12 tRC=40
n_cmd=446751 n_nop=208511 n_act=46208 n_pre=46192 n_req=72920 n_rd=104172 n_write=41668 bw_util=0.3264
n_activity=432812 dram_eff=0.337
bk0: 6500a 212942i bk1: 6492a 205882i bk2: 6464a 202092i bk3: 6464a 197844i bk4: 6484a 189840i bk5: 6488a 184307i bk6: 6528a 173590i bk7: 6528a 166656i bk8: 6528a 210470i bk9: 6528a 201611i bk10: 6528a 199246i bk11: 6528a 193741i bk12: 6528a 189617i bk13: 6528a 181922i bk14: 6528a 170753i bk15: 6528a 160708i 
dram_util_bins: 0 0 0 0 0 0 0 0 0 0
dram_eff_bins: 0 0 0 0 0 0 0 0 0 0
mrqq: max=16 avg=14.7174
Memory Partition 3: 
Cache L2_bank_006:
MSHR contents

Cache L2_bank_007:
MSHR contents
MSHR: tag=0x80f21180, atomic=0 1 entries : 0x7f12c50526c0 :  mf: uid=7585541, sid07:w31, part=3, addr=0x80f21180, load , size=128, unknown  status = IN_PARTITION_DRAM (338444), 

In Dram Latency Queue (total = 0): 
DRAM[3]: 16 bks, busW=4 BL=8 CL=12, tRRD=2 tCCD=6, tRCD=12 tRAS=28 tRP=12 tRC=40
n_cmd=446751 n_nop=206889 n_act=47019 n_pre=47003 n_req=72920 n_rd=104172 n_write=41668 bw_util=0.3264
n_activity=435499 dram_eff=0.3349
bk0: 6500a 208908i bk1: 6492a 207241i bk2: 6464a 201458i bk3: 6464a 194643i bk4: 6484a 187509i bk5: 6488a 177592i bk6: 6528a 174504i bk7: 6528a 163853i bk8: 6528a 206004i bk9: 6528a 200446i bk10: 6528a 197986i bk11: 6528a 192486i bk12: 6528a 184657i bk13: 6528a 177404i bk14: 6528a 166119i bk15: 6528a 155178i 
dram_util_bins: 0 0 0 0 0 0 0 0 0 0
dram_eff_bins: 0 0 0 0 0 0 0 0 0 0
mrqq: max=16 avg=14.3583
Memory Partition 4: 
Cache L2_bank_008:
MSHR contents

Cache L2_bank_009:
MSHR contents

In Dram Latency Queue (total = 0): 
DRAM[4]: 16 bks, busW=4 BL=8 CL=12, tRRD=2 tCCD=6, tRCD=12 tRAS=28 tRP=12 tRC=40
n_cmd=446751 n_nop=208555 n_act=46188 n_pre=46172 n_req=72918 n_rd=104168 n_write=41668 bw_util=0.3264
n_activity=431984 dram_eff=0.3376
bk0: 6496a 216351i bk1: 6492a 208885i bk2: 6464a 199826i bk3: 6464a 196123i bk4: 6484a 192109i bk5: 6488a 182339i bk6: 6528a 173252i bk7: 6528a 165735i bk8: 6528a 210142i bk9: 6528a 201499i bk10: 6528a 202511i bk11: 6528a 195757i bk12: 6528a 185501i bk13: 6528a 177801i bk14: 6528a 171248i bk15: 6528a 158246i 
dram_util_bins: 0 0 0 0 0 0 0 0 0 0
dram_eff_bins: 0 0 0 0 0 0 0 0 0 0
mrqq: max=16 avg=14.7073
Memory Partition 5: 
Cache L2_bank_010:
MSHR contents

Cache L2_bank_011:
MSHR contents

In Dram Latency Queue (total = 0): 
DRAM[5]: 16 bks, busW=4 BL=8 CL=12, tRRD=2 tCCD=6, tRCD=12 tRAS=28 tRP=12 tRC=40
n_cmd=446751 n_nop=207289 n_act=46821 n_pre=46805 n_req=72918 n_rd=104168 n_write=41668 bw_util=0.3264
n_activity=434603 dram_eff=0.3356
bk0: 6496a 214369i bk1: 6492a 208334i bk2: 6464a 202404i bk3: 6464a 196055i bk4: 6484a 193031i bk5: 6488a 180985i bk6: 6528a 174630i bk7: 6528a 166949i bk8: 6528a 210332i bk9: 6528a 201863i bk10: 6528a 202005i bk11: 6528a 191241i bk12: 6528a 188310i bk13: 6528a 178225i bk14: 6528a 169253i bk15: 6528a 160756i 
dram_util_bins: 0 0 0 0 0 0 0 0 0 0
dram_eff_bins: 0 0 0 0 0 0 0 0 0 0
mrqq: max=16 avg=14.3174

========= L2 cache stats =========
L2_cache_bank[0]: Access = 26087, Miss = 26045, Miss_rate = 0.998, Pending_hits = 9, Reservation_fails = 22424
L2_cache_bank[1]: Access = 26040, Miss = 26040, Miss_rate = 1.000, Pending_hits = 0, Reservation_fails = 22533
L2_cache_bank[2]: Access = 26072, Miss = 26044, Miss_rate = 0.999, Pending_hits = 6, Reservation_fails = 19128
L2_cache_bank[3]: Access = 26040, Miss = 26040, Miss_rate = 1.000, Pending_hits = 0, Reservation_fails = 23608
L2_cache_bank[4]: Access = 26072, Miss = 26044, Miss_rate = 0.999, Pending_hits = 6, Reservation_fails = 39029
L2_cache_bank[5]: Access = 26042, Miss = 26042, Miss_rate = 1.000, Pending_hits = 0, Reservation_fails = 48366
L2_cache_bank[6]: Access = 26072, Miss = 26044, Miss_rate = 0.999, Pending_hits = 6, Reservation_fails = 22583
L2_cache_bank[7]: Access = 26042, Miss = 26042, Miss_rate = 1.000, Pending_hits = 0, Reservation_fails = 25982
L2_cache_bank[8]: Access = 26042, Miss = 26042, Miss_rate = 1.000, Pending_hits = 0, Reservation_fails = 28348
L2_cache_bank[9]: Access = 26042, Miss = 26042, Miss_rate = 1.000, Pending_hits = 0, Reservation_fails = 36410
L2_cache_bank[10]: Access = 26042, Miss = 26042, Miss_rate = 1.000, Pending_hits = 0, Reservation_fails = 18434
L2_cache_bank[11]: Access = 26042, Miss = 26042, Miss_rate = 1.000, Pending_hits = 0, Reservation_fails = 28267
L2_total_cache_accesses = 312635
L2_total_cache_misses = 312509
L2_total_cache_miss_rate = 0.9996
L2_total_cache_pending_hits = 27
L2_total_cache_reservation_fails = 335112
L2_total_cache_breakdown:
	L2_cache_stats_breakdown[GLOBAL_ACC_R][MISS] = 187500
	L2_cache_stats_breakdown[GLOBAL_ACC_R][RESERVATION_FAIL] = 200576
	L2_cache_stats_breakdown[CONST_ACC_R][HIT] = 11
	L2_cache_stats_breakdown[CONST_ACC_R][HIT_RESERVED] = 3
	L2_cache_stats_breakdown[CONST_ACC_R][MISS] = 1
	L2_cache_stats_breakdown[CONST_ACC_R][RESERVATION_FAIL] = 109
	L2_cache_stats_breakdown[GLOBAL_ACC_W][MISS] = 125000
	L2_cache_stats_breakdown[GLOBAL_ACC_W][RESERVATION_FAIL] = 133637
	L2_cache_stats_breakdown[INST_ACC_R][HIT] = 88
	L2_cache_stats_breakdown[INST_ACC_R][HIT_RESERVED] = 24
	L2_cache_stats_breakdown[INST_ACC_R][MISS] = 8
	L2_cache_stats_breakdown[INST_ACC_R][RESERVATION_FAIL] = 790
L2_cache_data_port_util = 0.000
L2_cache_fill_port_util = 0.308

icnt_total_pkts_mem_to_simt=1063145
icnt_total_pkts_simt_to_mem=812635
LD_mem_lat_dist  0 0 0 0 0 0 0 0 0 0 0 0 0 0 0 0 0 0 0 0 0 0 0 0 0 0 0
ST_mem_lat_dist  0 0 0 0 0 0 0 0 0 0 0 0 0 0 0 0 0 0 0 0 0 0 0 0 0 0 0
----------------------------Interconnect-DETAILS--------------------------------
Class 0:
Packet latency average = 49.8654
	minimum = 6
	maximum = 690
Network latency average = 33.5302
	minimum = 6
	maximum = 664
Slowest packet = 4227
Flit latency average = 24.892
	minimum = 6
	maximum = 664
Slowest flit = 12654
Fragmentation average = 0.470071
	minimum = 0
	maximum = 392
Injected packet rate average = 0.0684245
	minimum = 0.0596517 (at node 13)
	maximum = 0.0770783 (at node 15)
Accepted packet rate average = 0.0684245
	minimum = 0.0596517 (at node 13)
	maximum = 0.0770783 (at node 15)
Injected flit rate average = 0.20527
	minimum = 0.155052 (at node 13)
	maximum = 0.2622 (at node 15)
Accepted flit rate average= 0.20527
	minimum = 0.200043 (at node 16)
	maximum = 0.215912 (at node 9)
Injected packet length average = 2.99995
Accepted packet length average = 2.99995
Total in-flight flits = 0 (0 measured)
====== Overall Traffic Statistics ======
====== Traffic class 0 ======
Packet latency average = 49.8654 (1 samples)
	minimum = 6 (1 samples)
	maximum = 690 (1 samples)
Network latency average = 33.5302 (1 samples)
	minimum = 6 (1 samples)
	maximum = 664 (1 samples)
Flit latency average = 24.892 (1 samples)
	minimum = 6 (1 samples)
	maximum = 664 (1 samples)
Fragmentation average = 0.470071 (1 samples)
	minimum = 0 (1 samples)
	maximum = 392 (1 samples)
Injected packet rate average = 0.0684245 (1 samples)
	minimum = 0.0596517 (1 samples)
	maximum = 0.0770783 (1 samples)
Accepted packet rate average = 0.0684245 (1 samples)
	minimum = 0.0596517 (1 samples)
	maximum = 0.0770783 (1 samples)
Injected flit rate average = 0.20527 (1 samples)
	minimum = 0.155052 (1 samples)
	maximum = 0.2622 (1 samples)
Accepted flit rate average = 0.20527 (1 samples)
	minimum = 0.200043 (1 samples)
	maximum = 0.215912 (1 samples)
Injected packet size average = 2.99995 (1 samples)
Accepted packet size average = 2.99995 (1 samples)
Hops average = 1 (1 samples)
----------------------------END-of-Interconnect-DETAILS-------------------------


gpgpu_simulation_time = 0 days, 0 hrs, 6 min, 0 sec (360 sec)
gpgpu_simulation_rate = 543838 (inst/sec)
gpgpu_simulation_rate = 940 (cycle/sec)
GPGPU-Sim: synchronize waiting for inactive GPU simulation
GPGPU-Sim API: Stream Manager State
GPGPU-Sim: detected inactive GPU simulation thread
Options count             : 4000000     
BlackScholesGPU() time    : 358553.843750 msec
Effective memory bandwidth: 0.000112 GB/s
Gigaoptions per second    : 0.000011     
Reading back GPU results...
Checking the results...
...running CPU calculations.
Comparing the results...
L1 norm: 1.729535E-07
Max absolute error: 1.192093E-05
TEST PASSED
Shutting down...
...releasing GPU memory.
...releasing CPU memory.
Shutdown done.
GPGPU-Sim: exit_simulation called
GPGPU-Sim: simulation thread signaled exit

Press ENTER to exit...
